*Heading
** Job name: sg2_airfoil Model name: Model-1
** Generated by: Abaqus/CAE 2017
*Preprint, echo=NO, model=NO, history=NO, contact=NO
**
** PARTS
**
*Part, name=Part-1
*Node
      1, 0.0864999965, 0.0937073603
      2, 0.0864999965, -0.0666999891
      3, 0.0945008025, -0.0665464699
      4,  0.116014354, -0.0660294741
      5,    0.1375276, -0.0653941333
      6,  0.159040511, -0.0646260902
      7,  0.180553079, -0.0637095869
      8,  0.202065304, -0.0626280457
      9,  0.223577216, -0.0613650307
     10,  0.245070636, -0.0599062108
     11,  0.263193041, -0.0585314482
     12,  0.277595252, -0.0572914109
     13,  0.291933119, -0.055888366
     14,  0.306268543, -0.0542397015
     15,  0.320600182, -0.0522608757
     16,  0.334929287, -0.0498372167
     17,  0.348204792, -0.0471116714
     18,  0.359143049, -0.0443928689
     19,  0.368031502, -0.0418122485
     20,  0.376625121, -0.0390010923
** ... 13668 like lines cut
*Element, type=CPS3
 1,  992,  214,  991
 2,  213, 1029, 1254
 3, 3540, 1030,    3
 4, 3438, 3434, 3436
 5, 3541,  107, 1144
 6,  214, 1291,  991
 7, 3513,  134,  135
 8, 1271, 1012, 1270
 9, 3440, 3441, 3464
10, 3528, 3597, 3596
11,  107, 3541, 3542
12,  107, 3542, 1143
13,  213, 1028, 1029
14, 3617, 3614, 3613
15, 3547, 3514, 3515
16, 3560, 3454, 3561
17, 3561, 3496, 3495
18, 3564, 3460, 3566
19, 3594, 3452, 3527
20, 3602, 3472, 3455
** ... 335 like lines cut
*Element, type=CPS4R
 24, 1289, 1290,  993,  994
 25,  994,  995, 1288, 1289
 26, 1287, 1288,  995,  996
 27,  996,  997, 1286, 1287
 28, 1285, 1286,  997,  998
 29, 1283, 1284,  999, 1000
 30, 1281, 1282, 1001, 1002
 31, 1279, 1280, 1003, 1004
 32, 1277, 1278, 1005, 1006
 33, 1275, 1276, 1007, 1008
 34, 1273, 1274, 1009, 1010
 35, 1010, 1011, 1272, 1273
 36, 1011, 1012, 1271, 1272
 37, 1270, 1012, 1013, 1269
 38, 1269, 1013, 1014, 1268
 39, 1268, 1014, 1015, 1267
 40, 1266, 1016, 1017, 1265
 41, 1264, 1018, 1019, 1263
 42, 1262, 1020, 1021, 1261
 43, 1260, 1022, 1023, 1259
** ... 12923 like lines cut
*Nset, nset=Set-1
    1,    2,    3,    4,    5,    6,    7,    8,    9,   10,   11,   12,   13,   14,   15,   16
   17,   18,   19,   20,   21,   22,   23,   87,   88,   89,   90,   91,   92,   93,   94,   95
   96,   97,   98,   99,  100,  101,  102,  103,  104,  105,  106,  107,  283,  284,  285,  286
  287,  288,  289,  290,  291,  292,  293,  294,  295,  296,  297,  298,  299,  300,  301,  302
  303,  304,  305,  306,  307,  308,  309,  310,  311,  312,  313,  314,  315,  316,  317,  318
  319,  320,  321,  322,  323,  324,  325,  326,  327,  328,  329,  330,  331,  332,  333,  334
  335,  336,  337,  338,  339,  340,  341,  342,  343,  344,  345,  346,  347,  348,  349,  350
  351,  352,  353,  354,  355,  356,  357,  358,  359,  360,  361,  362,  363,  364,  365,  366
  367,  368,  369,  370,  371,  372,  373,  374,  375,  376,  377,  378,  379,  380,  381,  382
  383,  384,  385,  386,  387,  388,  389,  390,  391,  392,  393,  394,  395,  396,  397,  398
  399,  400,  401,  402,  403,  404,  405,  406,  407,  408,  409,  410,  411,  412,  413,  414
  415,  416,  417,  418,  419,  420,  421,  422,  423,  424,  425,  426,  427,  428,  429,  430
  431,  432,  433,  434,  435,  436,  437,  438,  439,  440,  441,  442,  443,  444,  445,  446
  447,  448,  449,  450,  451,  452,  453,  454,  455,  456,  457,  458,  459,  460,  461,  462
  463,  464,  465,  466,  467,  468,  469,  470,  471,  472,  473,  474,  475,  476,  477,  478
  479,  480,  481,  482,  483,  484,  485,  486,  487,  488,  489,  490,  491,  492,  493,  494
  495,  496,  497,  498,  499,  500,  501,  502,  503,  504,  505,  506,  507,  508,  509,  510
  511,  512,  513,  514,  515,  516,  517,  518,  519,  520,  521,  522,  523,  524,  525,  526
  527,  528,  529,  530,  531,  532,  533,  534,  535,  536,  537,  538,  539,  540,  541,  542
  543,  544,  545,  546,  547,  548,  549,  550,  551,  552,  553,  554,  555,  556,  557,  558
** ... 97 like lines cut
*Elset, elset=Set-1, generate
 1301,  2253,     1
*Nset, nset=Set-2
   24,   25,   26,   27,   28,   29,   30,   31,   32,   33,   34,   35,   36,   37,   38,   39
   40,   41,   42,   43,   44,   45,   46,   47,   48,   49,   50,   51,   52,   53,   54,   55
   56,   57,   58,   59,   60,   61,   62,   63,   64,   65,   66,   67,   68,   69,   70,   71
   72,   73,   74,   75,   76,   77,   78,   79,   80,   81,   82,   83,   84,   85,   86,  400
  401,  402,  403,  404,  405,  406,  407,  408,  409,  410,  411,  412,  413,  414,  415,  416
  417,  418,  419,  420,  421,  422,  423,  424,  425,  426,  427,  428,  429,  430,  431,  432
  433,  434,  435,  436,  437,  438,  439,  440,  441,  442,  443,  444,  445,  446,  447,  448
  449,  450,  451,  452,  453,  454,  455,  456,  457,  458,  459,  460,  461,  462, 1086, 1087
 1088, 2046, 2047, 2048, 3996, 3997, 3998, 3999, 4000, 4001, 4002, 4003, 4004, 4005, 4006, 4007
 4008, 4009, 4010, 4011, 4012, 4013, 4014, 4015, 4016, 4017, 4018, 4019, 4020, 4021, 4022, 4023
 4024, 4025, 4026, 4027, 4028
*Elset, elset=Set-2, generate
 2255,  2353,     1
*Nset, nset=Set-3
   23,   24,   25,   26,   27,   28,   29,   30,   31,   32,   33,   34,   35,   36,   37,   38
   39,   40,   41,   42,   43,   44,   45,   46,   47,   48,   49,   50,   51,   52,   53,   54
   55,   56,   57,   58,   59,   60,   61,   62,   63,   64,   65,   66,   67,   68,   69,   70
   71,   72,   73,   74,   75,   76,   77,   78,   79,   80,   81,   82,   83,   84,   85,   86
   87,  400,  401,  402,  403,  404,  405,  406,  407,  408,  409,  410,  411,  412,  413,  414
  415,  416,  417,  418,  419,  420,  421,  422,  423,  424,  425,  426,  427,  428,  429,  430
  431,  432,  433,  434,  435,  436,  437,  438,  439,  440,  441,  442,  443,  444,  445,  446
  447,  448,  449,  450,  451,  452,  453,  454,  455,  456,  457,  458,  459,  460,  461,  462
 1086, 1087, 1088, 2046, 2047, 2048, 3996, 3997, 3998, 3999, 4000, 4001, 4002, 4003, 4004, 4005
 4006, 4007, 4008, 4009, 4010, 4011, 4012, 4013, 4014, 4015, 4016, 4017, 4018, 4019, 4020, 4021
 4022, 4023, 4024, 4025, 4026, 4027, 4028
*Elset, elset=Set-3, generate
 2254,  2354,     1
*Nset, nset=Set-4
  108,  109,  110,  111,  112,  113,  114,  115,  116,  117,  118,  119,  120,  121,  122,  123
  124,  125,  126,  127,  128,  129,  130,  131,  132,  133,  134,  135,  136,  137,  138,  139
  140,  141,  142,  143,  144,  145,  146,  147,  148,  149,  150,  151,  152,  153,  154,  155
  156,  157,  158,  159,  160,  161,  162,  163,  164,  165,  166,  167,  168,  169,  170,  171
  172,  173,  174,  175,  176,  177,  178,  179,  180,  181,  182,  183,  184,  185,  186,  187
  188,  189,  190,  191,  192,  193,  194,  195,  196,  197,  198,  199,  200,  201,  202,  203
  204,  205,  206,  207,  208,  209,  210,  211,  212,  213,  214,  215,  216, 1145, 1146, 1147
 1148, 1149, 1150, 1151, 1152, 1153, 1154, 1155, 1156, 1157, 1158, 1159, 1160, 1161, 1162, 1163
 1164, 1165, 1166, 1167, 1168, 1169, 1170, 1171, 1172, 1173, 1174, 1175, 1176, 1177, 1178, 1179
 1180, 1181, 1182, 1183, 1184, 1185, 1186, 1187, 1188, 1189, 1190, 1191, 1192, 1193, 1194, 1195
 1196, 1197, 1198, 1199, 1200, 1201, 1202, 1203, 1204, 1205, 1206, 1207, 1208, 1209, 1210, 1211
 1212, 1213, 1214, 1215, 1216, 1217, 1218, 1219, 1220, 1221, 1222, 1223, 1224, 1225, 1226, 1227
 1228, 1229, 1230, 1231, 1232, 1233, 1234, 1235, 1236, 1237, 1238, 1239, 1240, 1241, 1242, 1243
 1244, 1245, 1246, 1247, 1248, 1249, 1250, 1251, 1252, 1253, 1254, 1255, 1256, 1257, 1258, 1259
 1260, 1261, 1262, 1263, 1264, 1265, 1266, 1267, 1268, 1269, 1270, 1271, 1272, 1273, 1274, 1275
 1276, 1277, 1278, 1279, 1280, 1281, 1282, 1283, 1284, 1285, 1286, 1287, 1288, 1289, 1290, 1291
 1292, 1293, 1294, 1295, 4029, 4030, 4031, 4032, 4033, 4034, 4035, 4036, 4037, 4038, 4039, 4040
 4041, 4042, 4043, 4044, 4045, 4046, 4047, 4048, 4049, 4050, 4051, 4052, 4053, 4054, 4055, 4056
 4057, 4058, 4059, 4060, 4061, 4062, 4063, 4064, 4065, 4066, 4067, 4068, 4069, 4070, 4071, 4072
 4073, 4074, 4075, 4076, 4077, 4078, 4079, 4080, 4081, 4082, 4083, 4084, 4085, 4086, 4087, 4088
** ... 222 like lines cut
*Elset, elset=Set-4, generate
 2355,  6159,     1
*Nset, nset=Set-5
   881,   882,   883,   884,   885,   886,   887,   888,   889,   890,   891,   892,   893,   894,   895,   896
   897,   898,   899,   900,   901,   902,   903,   904,   905,   906,   907,   908,   909,   910,   911,   912
   913,   914,   915,   916,   917,   918,   919,   920,   921,   922,   923,   924,   925,   926,   927,   928
   929,   930,   931,   932,   933,   934,   935,   936,   937,   938,   939,   940,   941,   942,   943,   944
   945,   946,   947,   948,   949,   950,   951,   952,   953,   954,   955,   956,   957,   958,   959,   960
   961,   962,   963,   964,   965,   966,   967,   968,   969,   970,   971,   972,   973,   974,   975,   976
   977,   978,   979,   980,   981,   982,   983,   984,   985,   986,   987,   988,   989,   990,  3032,  3033
  3034,  3035,  3036,  3037,  3038,  3039,  3040,  3041,  3042,  3043,  3044,  3045,  3046,  3047,  3048,  3049
  3050,  3051,  3052,  3053,  3054,  3055,  3056,  3057,  3058,  3059,  3060,  3061,  3062,  3063,  3064,  3065
  3066,  3067,  3068,  3069,  3070,  3071,  3072,  3073,  3074,  3075,  3076,  3077,  3078,  3079,  3080,  3081
  3082,  3083,  3084,  3085,  3086,  3087,  3088,  3089,  3090,  3091,  3092,  3093,  3094,  3095,  3096,  3097
  3098,  3099,  3100,  3101,  3102,  3103,  3104,  3105,  3106,  3107,  3108,  3109,  3110,  3111,  3112,  3113
  3114,  3115,  3116,  3117,  3118,  3119,  3120,  3121,  3122,  3123,  3124,  3125,  3126,  3127,  3128,  3129
  3130,  3131,  3132,  3133,  3134,  3135,  3136,  3137,  3138,  3139,  3140,  3141,  3142,  3143,  3144,  3145
  3146,  3147,  3148,  3149,  3150,  3151,  3152,  3153,  3154,  3155,  3156,  3157,  3158,  3159,  3160,  3161
  3162,  3163,  3164,  3165,  3166,  3167,  3168,  3169,  3170,  3171,  3172,  3173,  3174,  3175,  3176,  3177
  3178,  3179,  3180,  3181,  3182,  3183,  3184,  3185,  3186,  3187,  3188,  3189,  3190,  3191,  3192,  3193
  3194,  3195,  3196,  3197,  3198,  3199,  3200,  3201,  3202,  3203,  3204,  3205,  3206,  3207,  3208,  3209
  3210,  3211,  3212,  3213,  3214,  3215,  3216,  3217,  3218,  3219,  3220,  3221,  3222,  3223,  3224,  3225
  3226,  3227,  3228,  3229,  3230,  3231,  3232,  3233,  3234,  3235,  3236,  3237,  3238,  3239,  3240,  3241
** ... 378 like lines cut
*Elset, elset=Set-5, generate
  7112,  13298,      1
*Nset, nset=Set-6
  108,  109,  110,  111,  112,  113,  114,  115,  116,  117,  118,  119,  120,  121,  122,  123
  124,  125,  126,  127,  128,  129,  130,  131,  132,  133,  134,  135,  136,  137,  138,  139
  140,  141,  142,  143,  144,  145,  146,  147,  148,  149,  150,  151,  152,  153,  154,  155
  156,  157,  158,  159,  160,  161,  162,  163,  164,  165,  166,  167,  168,  169,  170,  171
  172,  173,  174,  175,  176,  177,  178,  179,  180,  181,  182,  183,  184,  185,  186,  187
  188,  189,  190,  191,  192,  193,  194,  195,  196,  197,  198,  199,  200,  201,  202,  203
  204,  205,  206,  207,  208,  209,  210,  211,  212,  213,  214,  215,  216, 1145, 1146, 1147
 1148, 1149, 1150, 1151, 1152, 1153, 1154, 1155, 1156, 1157, 1158, 1159, 1160, 1161, 1162, 1163
 1164, 1165, 1166, 1167, 1168, 1169, 1170, 1171, 1172, 1173, 1174, 1175, 1176, 1177, 1178, 1179
 1180, 1181, 1182, 1183, 1184, 1185, 1186, 1187, 1188, 1189, 1190, 1191, 1192, 1193, 1194, 1195
 1196, 1197, 1198, 1199, 1200, 1201, 1202, 1203, 1204, 1205, 1206, 1207, 1208, 1209, 1210, 1211
 1212, 1213, 1214, 1215, 1216, 1217, 1218, 1219, 1220, 1221, 1222, 1223, 1224, 1225, 1226, 1227
 1228, 1229, 1230, 1231, 1232, 1233, 1234, 1235, 1236, 1237, 1238, 1239, 1240, 1241, 1242, 1243
 1244, 1245, 1246, 1247, 1248, 1249, 1250, 1251, 1252, 1253, 1254, 1255, 1256, 1257, 1258, 1259
 1260, 1261, 1262, 1263, 1264, 1265, 1266, 1267, 1268, 1269, 1270, 1271, 1272, 1273, 1274, 1275
 1276, 1277, 1278, 1279, 1280, 1281, 1282, 1283, 1284, 1285, 1286, 1287, 1288, 1289, 1290, 1291
 1292, 1293, 1294, 1295
*Elset, elset=Set-6
    2,    6,    7,    8,   24,   25,   26,   27,   28,   29,   30,   31,   32,   33,   34,   35
   36,   37,   38,   39,   40,   41,   42,   43,   44,   45,   46,   47,   49,   50,   51,   52
   53,   54,   55,   56,   57,   58,   59,   60,   61,   62,   63,   64,   65,   66,   67,   68
   69,   70,   71,   72,   73,   74,   75,   76,   77,   78,   79,   80,   81,   82,   83,   84
   85,   86,   87,   88,   89,   90,   91,   92,   93,   94,   95,   96,   97,   98,   99,  100
  101,  102,  103,  104,  105,  114,  115,  116,  117,  119,  120,  123,  128,  133,  134,  135
  136,  137,  138,  139,  140,  141,  142,  143,  144,  145,  146,  147,  148,  149,  150,  151
  152,  153,  154,  155,  156,  157,  158,  159,  160,  161,  162,  163,  164,  165,  166,  167
  168,  169,  170,  171,  172,  173,  174,  175,  176,  177,  178,  179,  180,  181,  182,  183
  184,  185,  186,  187,  188,  189,  190,  191,  192,  193,  194,  195,  197,  198,  199,  200
  201,  202,  203,  204,  205,  206,  207,  208,  209,  210,  211,  212,  213,  214,  215,  216
  217,  222,  223,  224,  225,  227,  228,  229,  230,  231,  232,  233,  234,  235,  236,  237
  238,  239,  240,  241,  242,  243,  244,  245,  246,  247,  248,  249,  250,  251,  252,  253
  254,  255,  256,  257,  258,  259,  260,  261,  262,  263,  264,  265,  266,  267,  268,  269
  270,  271,  272,  273,  274,  275,  276,  277,  278,  279,  280,  281,  282,  288,  303,  304
  310,  311,  315,  320,  329,  333,  335,  338,  352,  354,  386,  389,  395,  397,  398,  399
  400,  416,  417,  421, 2486, 2488, 2490, 2492, 2493, 2494, 2495, 2499, 2516, 2517, 2518, 2533
 2534, 2535, 2549, 2551, 2552, 2553, 2569, 2570, 2571, 2588, 2601, 2602, 2616, 2617, 2629, 2630
 2631, 2642, 2644, 2654, 2655, 2656, 2666, 2667, 2674, 2675, 2682, 2684, 2692, 2697, 2698, 2699
 2705, 2707, 2709, 2726, 2742, 2743, 2746, 2761, 2763, 2764, 2778, 2793, 2795, 2808, 2810, 2811
** ... 13 like lines cut
*Nset, nset=Set-8
  881,  882,  883,  884,  885,  886,  887,  888,  889,  890,  891,  892,  893,  894,  895,  896
  897,  898,  899,  900,  901,  902,  903,  904,  905,  906,  907,  908,  909,  910,  911,  912
  913,  914,  915,  916,  917,  918,  919,  920,  921,  922,  923,  924,  925,  926,  927,  928
  929,  930,  931,  932,  933,  934,  935,  936,  937,  938,  939,  940,  941,  942,  943,  944
  945,  946,  947,  948,  949,  950,  951,  952,  953,  954,  955,  956,  957,  958,  959,  960
  961,  962,  963,  964,  965,  966,  967,  968,  969,  970,  971,  972,  973,  974,  975,  976
  977,  978,  979,  980,  981,  982,  983,  984,  985,  986,  987,  988,  989,  990, 3032, 3033
 3034, 3035, 3036, 3037, 3038, 3039, 3040, 3041, 3042, 3043, 3044, 3045, 3046, 3047, 3048, 3049
 3050, 3051, 3052, 3053, 3054, 3055, 3056, 3057, 3058, 3059, 3060, 3061, 3062, 3063, 3064, 3065
 3066, 3067, 3068, 3069, 3070, 3071, 3072, 3073, 3074, 3075, 3076, 3077, 3078, 3079, 3080, 3081
 3082, 3083, 3084, 3085, 3086, 3087, 3088, 3089, 3090, 3091, 3092, 3093, 3094, 3095, 3096, 3097
 3098, 3099, 3100, 3101, 3102, 3103, 3104, 3105, 3106, 3107, 3108, 3109, 3110, 3111, 3112, 3113
 3114, 3115, 3116, 3117, 3118, 3119, 3120, 3121, 3122, 3123, 3124, 3125, 3126, 3127, 3128, 3129
 3130, 3131, 3132, 3133, 3134, 3135, 3136, 3137, 3138, 3139, 3140, 3141, 3142, 3143, 3144, 3145
 3146, 3147, 3148, 3149, 3150, 3151, 3152, 3153, 3154, 3155, 3156, 3157, 3158, 3159, 3160, 3161
 3162, 3163, 3164, 3165, 3166, 3167, 3168, 3169, 3170, 3171, 3172, 3173, 3174, 3175, 3176, 3177
 3178, 3179, 3180, 3181, 3182, 3183, 3184, 3185, 3186, 3187, 3188, 3189, 3190, 3191, 3192, 3193
 3194, 3195, 3196, 3197, 3198, 3199, 3200, 3201, 3202, 3203, 3204, 3205, 3206, 3207, 3208, 3209
 3210, 3211, 3212, 3213, 3214, 3215, 3216, 3217, 3218, 3219, 3220, 3221, 3222, 3223, 3224, 3225
 3226, 3227, 3228, 3229, 3230, 3231, 3232, 3233, 3234, 3235, 3236, 3237, 3238, 3239, 3240, 3241
** ... 12 like lines cut
*Elset, elset=Set-8
  6464,  6524,  6527,  6528,  6529,  6530,  6531,  6532,  6533,  6534,  6535,  6536,  6537,  6538,  6539,  6540
  6541,  6542,  6543,  6544,  6545,  6546,  6547,  6548,  6549,  6550,  6551,  6552,  6553,  6554,  6555,  6556
  6557,  6558,  6559,  6560,  6561,  6562,  6563,  6564,  6565,  6566,  6567,  6568,  6569,  6570,  6571,  6572
  6573,  6574,  6575,  6576,  6577,  6578,  6579,  6580,  6581,  6582,  6583,  6584,  6585,  6586,  6587,  6588
  6589,  6590,  6591,  6592,  6593,  6594,  6595,  6596,  6597,  6598,  6599,  6600,  6601,  6602,  6603,  6604
  6605,  6606,  6607,  6608,  6609,  6610,  6611,  6612,  6613,  6614,  6615,  6616,  6617,  6618,  6619,  6620
  6621,  6622,  6623,  6624,  6625,  6626,  6627,  6628,  6629,  6630,  6631,  6632,  6633,  6634,  6635,  6636
  6637,  6638,  6639,  6640,  6641,  6642,  6643,  6644,  6645,  6646,  6647,  6648,  6649,  6650,  6651,  6652
  6653,  6654,  6655,  6656,  6657,  6658,  6659,  6660,  6661,  6662,  6663,  6664,  6665,  6666,  6667,  6668
  6669,  6670,  6671,  6672,  6673,  6674,  6675,  6676,  6677,  6678,  6679,  6680,  6681,  6682,  6683,  6684
  6685,  6686,  6687,  6688,  6691,  6692,  6693,  6694,  6695,  6696,  6697,  6698,  6699,  6700,  6701,  6702
  6703,  6704,  6705,  6706,  6707,  6708,  6709,  6710,  6711,  6712,  6713,  6714,  6715,  6716,  6717,  6718
  6719,  6720,  6721,  6722,  6723,  6724,  6725,  6726,  6727,  6728,  6729,  6730,  6731,  6732,  6733,  6734
  6735,  6736,  6737,  6738,  6739,  6740,  6741,  6742,  6743,  6744,  6745,  6746,  6747,  6748,  6749,  6750
  6751,  6752,  6753,  6754,  6755,  6756,  6757,  6758,  6759,  6760,  6761,  6762,  6763,  6764,  6765,  6766
  6767,  6768,  6769,  6770,  6771,  6772,  6773,  6774,  6775,  6776,  6777,  6778,  6779,  6780,  6781,  6782
  6783,  6784,  6785,  6786,  6787,  6788,  6789,  6790,  6791,  6792,  6793,  6794,  6795,  6796,  6797,  6798
  6799,  6800,  6801,  6802,  6803,  6804,  6805,  6806,  6807,  6808,  6809,  6810,  6811,  6812,  6813,  6814
  6815,  6816,  6817,  6818,  6819,  6820,  6821,  6822,  6823,  6824,  6825,  6826,  6827,  6828,  6829,  6830
  6831,  6832,  6833,  6834,  6835,  6836,  6837,  6838,  6839,  6840,  6841,  6842,  6843,  6844,  6845,  6846
** ... 44 like lines cut
*Nset, nset=Set-10
  249,  250,  251,  252,  253,  254,  255,  256,  257,  258,  259,  260,  261,  262,  263,  264
  265,  266,  267,  268,  269,  270,  271,  272,  273,  274,  275,  276,  277,  278,  279,  280
  281,  282, 1484, 1485, 1486, 1487, 1488, 1489, 1490, 1491, 1492, 1493, 1494, 1495, 1496, 1497
 1498, 1499, 1500, 1501, 1502, 1503, 1504, 1505, 1506, 1507, 1508, 1509, 1510, 1511, 1512, 1513
 1514, 1515, 1516, 1517, 1518, 1519, 1520, 1521, 1522, 1523, 1524, 1525, 1526, 1527, 1528, 1529
 1530, 1531, 1532, 1533, 1534, 1535, 1536, 1537, 1538, 1539, 1540, 1541, 1542, 1543, 1544, 1545
 1546, 1547, 1548, 1549, 1550, 1551, 1552, 1553, 1554, 1555, 1556, 1557, 1558, 1559, 1560, 1561
 1562, 1563, 1564, 1565, 1566, 1567, 1568, 1569, 1570, 1571, 1572, 1573, 1574, 1575, 1576, 1577
 1578, 1579, 1580, 1581, 1582, 1583, 1584, 1585, 1586, 1587, 1588, 1589, 1590, 1591, 1592, 1593
 1594, 1595, 1596, 1597, 1598, 1599, 1600, 1601, 1602, 1603, 1604, 1605, 1606, 1607, 1608, 1609
 1610, 1611, 1612, 1613, 1614, 1615, 1616, 1617, 1618, 1619, 1620, 1621, 1622, 1623, 1624, 1625
 1626, 1627, 1628, 1629, 1630, 1631, 1632, 1633, 1634, 1635, 1636, 1637, 1638, 1639, 1640, 1641
 1642, 1643, 1644, 1645, 1646, 1647, 1648, 1649, 1650, 1651, 1652, 1653, 1654, 1655, 1656, 1657
 1658, 1659, 1660, 1661, 1662, 1663, 1664, 1665, 1666, 1667, 1668, 1669, 1670, 1671, 1672, 1673
 1674, 1675, 1676, 1677, 1678, 1679, 1680, 1681, 1682, 1683, 1684, 1685, 1686, 1687, 1688
*Elset, elset=Set-10
  495,  500,  503,  508,  510,  513,  514,  515,  517,  518,  519,  525,  531,  533,  538,  540
  543,  545,  546,  548,  552,  553,  557,  558,  559,  562,  564,  565,  567,  570,  572,  574
  575,  576,  578,  579,  580,  581,  587,  588,  590,  592,  594,  595,  597,  600,  603,  604
  605,  609,  610,  614,  616,  617,  619,  621,  624,  626,  627,  629,  630,  631,  632,  633
  634,  635,  641,  642,  643,  644,  647,  656,  659,  661,  663,  664,  665,  666,  671,  673
  675,  676,  677,  678,  679,  680,  681,  682,  684,  687,  690,  697,  698,  700,  701,  702
  703,  706,  710,  712,  717,  720,  724,  727,  733,  736,  737,  740,  741,  744,  745,  748
  752,  754,  758,  759,  761,  765,  766,  776,  811,  812,  813,  814,  815,  820,  821,  822
  823,  824,  825,  826,  827,  828,  829,  831,  832,  833,  837,  838,  840,  841,  842,  843
  844,  845,  847,  849,  852,  853,  854,  855,  857,  858,  859,  860,  861,  862,  863,  865
  866,  867,  868,  869,  870,  873,  875,  877,  878,  880,  882,  884,  890,  894,  895,  896
  897,  902,  906,  907,  909,  910,  911,  912,  914,  916,  922,  925,  927,  928,  929,  930
  936,  938,  947,  957,  959,  962,  963,  964,  966,  968,  969,  971,  976,  978,  979,  982
  986,  991,  992,  993,  998,  999, 1003, 1004, 1005, 1006, 1007, 1009, 1014, 1017, 1018, 1021
 1023, 1024, 1025, 1026, 1027, 1028, 1029, 1030, 1032, 1033, 1034, 1035, 1036, 1038, 1048, 1049
 1050, 1052, 1054, 1056, 1057, 1059, 1060, 1061, 1062, 1063, 1064, 1065, 1066, 1067, 1068, 1069
 1070, 1071, 1072, 1073, 1074, 1075, 1076, 1077, 1078, 1081, 1082, 1083, 1084, 1085, 1086, 1087
 1088, 1089, 1090, 1091, 1092, 1093, 1094, 1095, 1096, 1097, 1098, 1099, 1100, 1101, 1102, 1103
 1104, 1105, 1106, 1107, 1108, 1109, 1110, 1111, 1112, 1113, 1114, 1115, 1116, 1117, 1118, 1119
 1120, 1121, 1122, 1123, 1124, 1125, 1126, 1127, 1128, 1129, 1130, 1131, 1132, 1133, 1134, 1135
** ... 10 like lines cut
*Nset, nset=Set-12
  217,  218,  219,  220,  221,  222,  223,  224,  225,  226,  227,  228,  229,  230,  231,  232
  233,  234,  235,  236,  237,  238,  239,  240,  241,  242,  243,  244,  245,  246,  247,  248
 1296, 1297, 1298, 1299, 1300, 1301, 1302, 1303, 1304, 1305, 1306, 1307, 1308, 1309, 1310, 1311
 1312, 1313, 1314, 1315, 1316, 1317, 1318, 1319, 1320, 1321, 1322, 1323, 1324, 1325, 1326, 1327
 1328, 1329, 1330, 1331, 1332, 1333, 1334, 1335, 1336, 1337, 1338, 1339, 1340, 1341, 1342, 1343
 1344, 1345, 1346, 1347, 1348, 1349, 1350, 1351, 1352, 1353, 1354, 1355, 1356, 1357, 1358, 1359
 1360, 1361, 1362, 1363, 1364, 1365, 1366, 1367, 1368, 1369, 1370, 1371, 1372, 1373, 1374, 1375
 1376, 1377, 1378, 1379, 1380, 1381, 1382, 1383, 1384, 1385, 1386, 1387, 1388, 1389, 1390, 1391
 1392, 1393, 1394, 1395, 1396, 1397, 1398, 1399, 1400, 1401, 1402, 1403, 1404, 1405, 1406, 1407
 1408, 1409, 1410, 1411, 1412, 1413, 1414, 1415, 1416, 1417, 1418, 1419, 1420, 1421, 1422, 1423
 1424, 1425, 1426, 1427, 1428, 1429, 1430, 1431, 1432, 1433, 1434, 1435, 1436, 1437, 1438, 1439
 1440, 1441, 1442, 1443, 1444, 1445, 1446, 1447, 1448, 1449, 1450, 1451, 1452, 1453, 1454, 1455
 1456, 1457, 1458, 1459, 1460, 1461, 1462, 1463, 1464, 1465, 1466, 1467, 1468, 1469, 1470, 1471
 1472, 1473, 1474, 1475, 1476, 1477, 1478, 1479, 1480, 1481, 1482, 1483
*Elset, elset=Set-12
  494,  498,  511,  512,  516,  520,  521,  522,  523,  524,  526,  527,  528,  529,  530,  532
  534,  535,  536,  537,  539,  541,  542,  544,  547,  549,  550,  551,  554,  556,  560,  561
  563,  566,  568,  569,  571,  573,  577,  582,  583,  585,  586,  596,  602,  607,  611,  612
  613,  615,  618,  622,  623,  625,  628,  636,  637,  638,  639,  640,  645,  646,  648,  649
  654,  655,  660,  662,  667,  668,  669,  670,  672,  674,  683,  685,  686,  688,  691,  692
  693,  694,  705,  707,  709,  718,  719,  723,  728,  729,  730,  731,  732,  735,  738,  739
  742,  743,  746,  749,  750,  751,  753,  755,  757,  760,  762,  763,  764,  770,  771,  772
  773,  774,  775,  777,  779,  780,  781,  782,  783,  788,  789,  790,  791,  792,  795,  796
  797,  798,  799,  800,  801,  802,  803,  804,  805,  806,  808,  809,  818,  830,  834,  839
  846,  848,  851,  864,  872,  874,  876,  881,  885,  887,  888,  889,  892,  893,  899,  900
  901,  903,  904,  905,  908,  917,  918,  919,  920,  921,  924,  926,  931,  935,  937,  939
  941,  942,  943,  944,  945,  946,  948,  949,  952,  953,  954,  955,  956,  958,  960,  961
  965,  967,  970,  972,  973,  974,  975,  977,  980,  981,  983,  984,  985,  987,  988,  989
  990,  994, 1000, 1001, 1010, 1011, 1012, 1013, 1019, 1020, 1022, 1031, 6162, 6163, 6164, 6166
 6167, 6168, 6169, 6170, 6171, 6172, 6173, 6174, 6175, 6176, 6177, 6178, 6179, 6180, 6181, 6182
 6183, 6184, 6185, 6186, 6187, 6188, 6189, 6190, 6191, 6192, 6193, 6194, 6195, 6196, 6197, 6198
 6199, 6200, 6201, 6202, 6203, 6204, 6205, 6206, 6207, 6209, 6215, 6217, 6222, 6225, 6226, 6227
 6229, 6230, 6233, 6234, 6237, 6238, 6239, 6240, 6241, 6242, 6243, 6245, 6247, 6248, 6249, 6250
 6251, 6252, 6253, 6254, 6255, 6256, 6257, 6258, 6259, 6260, 6261, 6262, 6263, 6264, 6265, 6266
 6268, 6269, 6270, 6271, 6272, 6273, 6274, 6275, 6276, 6277, 6278, 6279, 6280, 6281, 6282, 6283
** ... 8 like lines cut
*Nset, nset=Set-14
  849,  850,  851,  852,  853,  854,  855,  856,  857,  858,  859,  860,  861,  862,  863,  864
  865,  866,  867,  868,  869,  870,  871,  872,  873,  874,  875,  876,  877,  878,  879,  880
 2852, 2853, 2854, 2855, 2856, 2857, 2858, 2859, 2860, 2861, 2862, 2863, 2864, 2865, 2866, 2867
 2868, 2869, 2870, 2871, 2872, 2873, 2874, 2875, 2876, 2877, 2878, 2879, 2880, 2881, 2882, 2883
 2884, 2885, 2886, 2887, 2888, 2889, 2890, 2891, 2892, 2893, 2894, 2895, 2896, 2897, 2898, 2899
 2900, 2901, 2902, 2903, 2904, 2905, 2906, 2907, 2908, 2909, 2910, 2911, 2912, 2913, 2914, 2915
 2916, 2917, 2918, 2919, 2920, 2921, 2922, 2923, 2924, 2925, 2926, 2927, 2928, 2929, 2930, 2931
 2932, 2933, 2934, 2935, 2936, 2937, 2938, 2939, 2940, 2941, 2942, 2943, 2944, 2945, 2946, 2947
 2948, 2949, 2950, 2951, 2952, 2953, 2954, 2955, 2956, 2957, 2958, 2959, 2960, 2961, 2962, 2963
 2964, 2965, 2966, 2967, 2968, 2969, 2970, 2971, 2972, 2973, 2974, 2975, 2976, 2977, 2978, 2979
 2980, 2981, 2982, 2983, 2984, 2985, 2986, 2987, 2988, 2989, 2990, 2991, 2992, 2993, 2994, 2995
 2996, 2997, 2998, 2999, 3000, 3001, 3002, 3003, 3004, 3005, 3006, 3007, 3008, 3009, 3010, 3011
 3012, 3013, 3014, 3015, 3016, 3017, 3018, 3019, 3020, 3021, 3022, 3023, 3024, 3025, 3026, 3027
 3028, 3029, 3030, 3031
*Elset, elset=Set-14
 6162, 6163, 6164, 6165, 6166, 6167, 6168, 6169, 6170, 6171, 6172, 6173, 6174, 6175, 6176, 6177
 6178, 6179, 6180, 6181, 6182, 6183, 6184, 6185, 6186, 6187, 6188, 6189, 6191, 6192, 6193, 6194
 6195, 6196, 6197, 6198, 6199, 6200, 6201, 6202, 6203, 6204, 6205, 6208, 6210, 6211, 6212, 6213
 6214, 6216, 6218, 6219, 6220, 6221, 6223, 6224, 6228, 6231, 6232, 6235, 6236, 6244, 6246, 6249
 6250, 6251, 6252, 6253, 6254, 6255, 6256, 6257, 6258, 6259, 6260, 6261, 6262, 6263, 6264, 6265
 6267, 6269, 6270, 6271, 6272, 6273, 6274, 6275, 6276, 6277, 6278, 6279, 6280, 6281, 6282, 6283
 6284, 6285, 6286, 6287, 6288, 6289, 6290, 6291, 6292, 6293, 6294, 6295, 6296, 6297, 6299, 6300
 6301, 6302, 6303, 6305, 6306, 6308, 6309, 6310, 6311, 6312, 6313, 6314, 6315, 6316, 6317, 6319
 6320, 6322, 6323, 6324, 6325, 6327, 6328, 6329, 6330, 6331, 6332, 6333, 6334, 6335, 6336, 6337
 6339, 6340, 6341, 6343, 6344, 6345, 6346, 6347, 6348, 6349, 6350, 6351, 6352, 6353, 6354, 6355
 6356, 6357, 6358, 6359, 6360, 6361, 6362, 6363, 6364, 6365, 6366, 6367, 6368, 6369, 6370, 6371
 6374, 6376, 6377, 6379, 6380, 6383, 6385, 6387, 6388, 6390, 6391, 6392, 6393, 6394, 6396, 6397
 6398, 6399, 6400, 6401, 6402, 6403, 6404, 6405, 6407, 6408, 6409, 6410, 6411, 6412, 6413, 6414
 6449, 6450, 6451, 6453
*Distribution, name=Ori-1-DiscOrient, location=ELEMENT, Table=Ori-1-DiscOrient_Table
** Description: Distribution generated from Discrete Orientation
,           1.,           0.,           0.,           0.,           1.,           0.
1, -0.0608316622674465, -0.998148024082184,           0., 0.998148024082184, -0.0608316622674465,           0.
2, 0.373893648386002, -0.927471578121185,           0., 0.927471578121185, 0.373893648386002,           0.
3, 0.999206602573395, -0.039827074855566,           0., 0.039827074855566, 0.999206602573395,           0.
4, -0.198110073804855, 0.980179786682129,           0., -0.980179786682129, -0.198110073804855,           0.
5, -0.999866783618927, -0.0163212064653635,           0., 0.0163212064653635, -0.999866783618927,           0.
6, -0.382635593414307, -0.923899352550507,           0., 0.923899352550507, -0.382635593414307,           0.
7, -0.578262150287628, 0.815851032733917,           0., -0.815851032733917, -0.578262150287628,           0.
8,           0.,          -1.,           0.,           1.,           0.,           0.
9, 0.30742534995079, 0.951572179794312,           0., -0.951572179794312, 0.30742534995079,           0.
10, -0.0337744392454624, 0.99942946434021,           0., -0.99942946434021, -0.0337744392454624,           0.
11, -0.999322175979614, 0.0368131622672081,           0., -0.0368131622672081, -0.999322175979614,           0.
12, -0.998925387859344, 0.0463470965623856,           0., -0.0463470965623856, -0.998925387859344,           0.
13, 0.0475228875875473, -0.998870134353638,           0., 0.998870134353638, 0.0475228875875473,           0.
14, 0.0653671249747276, 0.997861266136169,           0., -0.997861266136169, 0.0653671249747276,           0.
15, 0.0392559505999088, 0.999229192733765,           0., -0.999229192733765, 0.0392559505999088,           0.
16, -0.0543079040944576, 0.998524248600006,           0., -0.998524248600006, -0.0543079040944576,           0.
17, -0.0543079040944576, 0.998524248600006,           0., -0.998524248600006, -0.0543079040944576,           0.
18, -0.116840459406376, 0.99315071105957,           0., -0.99315071105957, -0.116840459406376,           0.
19, -0.0269990358501673, 0.999635457992554,           0., -0.999635457992554, -0.0269990358501673,           0.
20, -0.0620114915072918, 0.998075425624847,           0., -0.998075425624847, -0.0620114915072918,           0.
** ... 472 like lines cut
*Distribution, name=Ori-2-DiscOrient, location=ELEMENT, Table=Ori-2-DiscOrient_Table
** Description: Distribution generated from Discrete Orientation
,           1.,           0.,           0.,           0.,           1.,           0.
6464, -0.472438037395477, -0.881363868713379,           0., 0.881363868713379, -0.472438037395477,           0.
6465, 0.066882312297821, -0.997760891914368,           0., 0.997760891914368, 0.066882312297821,           0.
6466,           0.,           1.,           0.,          -1.,           0.,           0.
6467, 0.0471079722046852, -0.998889803886414,           0., 0.998889803886414, 0.0471079722046852,           0.
6468, 0.0210337787866592, -0.999778747558594,           0., 0.999778747558594, 0.0210337787866592,           0.
6469, -0.58991527557373, -0.807465136051178,           0., 0.807465136051178, -0.58991527557373,           0.
6470, -0.460629373788834, 0.887592554092407,           0., -0.887592554092407, -0.460629373788834,           0.
6471, -0.00893615745007992, -0.999960064888,           0., 0.999960064888, -0.00893615745007992,           0.
6472, 0.0191358104348183, -0.99981689453125,           0., 0.99981689453125, 0.0191358104348183,           0.
6473, -0.910785377025604, 0.412880092859268,           0., -0.412880092859268, -0.910785377025604,           0.
6474, -0.99406772851944, -0.108762927353382,           0., 0.108762927353382, -0.99406772851944,           0.
6475, -0.790740787982941, -0.612151086330414,           0., 0.612151086330414, -0.790740787982941,           0.
6476, 0.0187823846936226, -0.999823570251465,           0., 0.999823570251465, 0.0187823846936226,           0.
6477, 0.0290336478501558, -0.999578416347504,           0., 0.999578416347504, 0.0290336478501558,           0.
6478, 0.00994543824344873, -0.999950528144836,           0., 0.999950528144836, 0.00994543824344873,           0.
6479, 0.0457693450152874, -0.998952031135559,           0., 0.998952031135559, 0.0457693450152874,           0.
6480, 0.0111058726906776, -0.999938309192657,           0., 0.999938309192657, 0.0111058726906776,           0.
6481, -0.0117450952529907, -0.999931037425995,           0., 0.999931037425995, -0.0117450952529907,           0.
6482, -0.00800137501209974, -0.999967992305756,           0., 0.999967992305756, -0.00800137501209974,           0.
6483, 0.0467607714235783, -0.998906135559082,           0., 0.998906135559082, 0.0467607714235783,           0.
** ... 628 like lines cut
*Distribution, name=Ori-3-DiscOrient, location=ELEMENT, Table=Ori-3-DiscOrient_Table
** Description: Distribution generated from Discrete Orientation
,           1.,           0.,           0.,           0.,           1.,           0.
1048, -0.836370587348938, 0.548164427280426,           0., -0.548164427280426, -0.836370587348938,           0.
1049, -0.840556204319, -0.541724324226379,           0., 0.541724324226379, -0.840556204319,           0.
1050, 0.528263211250305, 0.849080681800842,           0., -0.849080681800842, 0.528263211250305,           0.
1051, 0.800542414188385, -0.599276125431061,           0., 0.599276125431061, 0.800542414188385,           0.
1052, 0.842214584350586, 0.539142489433289,           0., -0.539142489433289, 0.842214584350586,           0.
1053, 0.922337710857391, -0.386384785175323,           0., 0.386384785175323, 0.922337710857391,           0.
1054, -0.522355198860168, 0.852728009223938,           0., -0.852728009223938, -0.522355198860168,           0.
1055, -0.634202420711517, -0.773167014122009,           0., 0.773167014122009, -0.634202420711517,           0.
1056, -0.999619424343109, 0.0275863204151392,           0., -0.0275863204151392, -0.999619424343109,           0.
1057, -0.999321401119232, 0.036834143102169,           0., -0.036834143102169, -0.999321401119232,           0.
1058, -0.337320059537888, 0.941390037536621,           0., -0.941390037536621, -0.337320059537888,           0.
1059,           0.,           1.,           0.,          -1.,           0.,           0.
1060,           0.,           1.,           0.,          -1.,           0.,           0.
1061,           0.,           1.,           0.,          -1.,           0.,           0.
1062,           0.,           1.,           0.,          -1.,           0.,           0.
1063,           0.,           1.,           0.,          -1.,           0.,           0.
1064,           0.,           1.,           0.,          -1.,           0.,           0.
1065,           0.,           1.,           0.,          -1.,           0.,           0.
1066,           0.,           1.,           0.,          -1.,           0.,           0.
1067,           0.,           1.,           0.,          -1.,           0.,           0.
** ... 233 like lines cut
*Distribution, name=Ori-4-DiscOrient, location=ELEMENT, Table=Ori-4-DiscOrient_Table
** Description: Distribution generated from Discrete Orientation
,           1.,           0.,           0.,           0.,           1.,           0.
493,           0.,           1.,           0.,          -1.,           0.,           0.
494, 0.999982953071594, -0.00584228197112679,           0., 0.00584228197112679, 0.999982953071594,           0.
495, 0.999746024608612, -0.022537425160408,           0., 0.022537425160408, 0.999746024608612,           0.
496,           0.,          -1.,           0.,           1.,           0.,           0.
497,           0.,          -1.,           0.,           1.,           0.,           0.
498, 0.999799728393555, -0.0200124718248844,           0., 0.0200124718248844, 0.999799728393555,           0.
499, -0.99996417760849, -0.00846565421670675,           0., 0.00846565421670675, -0.99996417760849,           0.
500, -0.761854708194733, 0.647747933864594,           0., -0.647747933864594, -0.761854708194733,           0.
501, -0.999990940093994, -0.00425375532358885,           0., 0.00425375532358885, -0.999990940093994,           0.
502, -0.999990940093994, -0.00425375532358885,           0., 0.00425375532358885, -0.999990940093994,           0.
503,           0.,          -1.,           0.,           1.,           0.,           0.
504,           0.,           1.,           0.,          -1.,           0.,           0.
505,           0.,           1.,           0.,          -1.,           0.,           0.
506,           0.,           1.,           0.,          -1.,           0.,           0.
507, 0.942391455173492, -0.334512114524841,           0., 0.334512114524841, 0.942391455173492,           0.
508, 0.999799728393555, -0.0200124718248844,           0., 0.0200124718248844, 0.999799728393555,           0.
509,           0.,          -1.,           0.,           1.,           0.,           0.
510, -0.999782741069794, -0.0208441913127899,           0., 0.0208441913127899, -0.999782741069794,           0.
511, -0.999782741069794, -0.0208441913127899,           0., 0.0208441913127899, -0.999782741069794,           0.
512, -0.999782741069794, -0.0208441913127899,           0., 0.0208441913127899, -0.999782741069794,           0.
** ... 535 like lines cut
*Distribution, name=Ori-5-DiscOrient, location=ELEMENT, Table=Ori-5-DiscOrient_Table
** Description: Distribution generated from Discrete Orientation
,           1.,           0.,           0.,           0.,           1.,           0.
6160, 0.767365336418152, -0.64121013879776,           0., 0.64121013879776, 0.767365336418152,           0.
6161, 0.989491760730743, 0.144589260220528,           0., -0.144589260220528, 0.989491760730743,           0.
6162, -0.999809861183167, 0.0195010248571634,           0., -0.0195010248571634, -0.999809861183167,           0.
6163, -0.999618828296661, 0.0276086200028658,           0., -0.0276086200028658, -0.999618828296661,           0.
6164, -0.999618828296661, 0.0276086200028658,           0., -0.0276086200028658, -0.999618828296661,           0.
6165, -0.844035923480988, 0.536286652088165,           0., -0.536286652088165, -0.844035923480988,           0.
6166, -0.999809861183167, 0.0195010248571634,           0., -0.0195010248571634, -0.999809861183167,           0.
6167, -0.999809861183167, 0.0195010248571634,           0., -0.0195010248571634, -0.999809861183167,           0.
6168, -0.999924957752228, 0.0122518753632903,           0., -0.0122518753632903, -0.999924957752228,           0.
6169, -0.999809861183167, 0.0195010248571634,           0., -0.0195010248571634, -0.999809861183167,           0.
6170, -0.999924957752228, 0.0122518753632903,           0., -0.0122518753632903, -0.999924957752228,           0.
6171, -0.999924957752228, 0.0122518753632903,           0., -0.0122518753632903, -0.999924957752228,           0.
6172, -0.999982893466949, 0.0058450042270124,           0., -0.0058450042270124, -0.999982893466949,           0.
6173, -0.999924957752228, 0.0122518753632903,           0., -0.0122518753632903, -0.999924957752228,           0.
6174, -0.999982893466949, 0.0058450042270124,           0., -0.0058450042270124, -0.999982893466949,           0.
6175, -0.999982893466949, 0.0058450042270124,           0., -0.0058450042270124, -0.999982893466949,           0.
6176,          -1.,           0.,           0.,           0.,          -1.,           0.
6177, -0.999982893466949, 0.0058450042270124,           0., -0.0058450042270124, -0.999982893466949,           0.
6178,          -1.,           0.,           0.,           0.,          -1.,           0.
6179,          -1.,           0.,           0.,           0.,          -1.,           0.
** ... 284 like lines cut
*Orientation, name=Ori-1, system=RECTANGULAR
Ori-1-DiscOrient
3, 0.
** Region: (CompositeLayup-1-1: Generated From Layup)
*Elset, elset=CompositeLayup-1-1, generate
   1,  492,    1
** Section: CompositeLayup-1-1
*Solid Section, elset=CompositeLayup-1-1, composite, orientation=Ori-1, stack direction=3, layup=CompositeLayup-1
1., 1, cfrp, 0., Ply-1
*Orientation, name=Ori-4, system=RECTANGULAR
Ori-4-DiscOrient
3, 0.
** Region: (CompositeLayup-4-1: Generated From Layup)
*Elset, elset=CompositeLayup-4-1, generate
  493,  1047,     1
** Section: CompositeLayup-4-1
*Solid Section, elset=CompositeLayup-4-1, composite, orientation=Ori-4, stack direction=3, layup=CompositeLayup-4
1., 1, cfrp, 0., Ply-1
*Orientation, name=Ori-3, system=RECTANGULAR
Ori-3-DiscOrient
3, 0.
** Region: (CompositeLayup-3-1: Generated From Layup)
*Elset, elset=CompositeLayup-3-1, generate
 1048,  1300,     1
** Section: CompositeLayup-3-1
*Solid Section, elset=CompositeLayup-3-1, composite, orientation=Ori-3, stack direction=3, layup=CompositeLayup-3
1., 1, cfrp, 45., Ply-1
** Section: coat
*Solid Section, elset=Set-1, material=coat
,
** Section: al
*Solid Section, elset=Set-3, material=al
,
** Section: foam
*Solid Section, elset=Set-4, material=foam
,
*Orientation, name=Ori-5, system=RECTANGULAR
Ori-5-DiscOrient
3, 0.
** Region: (CompositeLayup-5-1: Generated From Layup)
*Elset, elset=CompositeLayup-5-1, generate
 6160,  6463,     1
** Section: CompositeLayup-5-1
*Solid Section, elset=CompositeLayup-5-1, composite, orientation=Ori-5, stack direction=3, layup=CompositeLayup-5
1., 1, cfrp, -45., Ply-1
*Orientation, name=Ori-2, system=RECTANGULAR
Ori-2-DiscOrient
3, 0.
** Region: (CompositeLayup-2-1: Generated From Layup)
*Elset, elset=CompositeLayup-2-1, generate
 6464,  7111,     1
** Section: CompositeLayup-2-1
*Solid Section, elset=CompositeLayup-2-1, composite, orientation=Ori-2, stack direction=3, layup=CompositeLayup-2
1., 1, cfrp, 0., Ply-1
** Section: honeycomb
*Solid Section, elset=Set-5, material=honeycomb
,
*End Part
**  
**
** ASSEMBLY
**
*Assembly, name=Assembly
**  
*Instance, name=Part-1-1, part=Part-1
*End Instance
**  
*End Assembly
*Distribution Table, name=Ori-1-DiscOrient_Table
coord3D, coord3D
*Distribution Table, name=Ori-2-DiscOrient_Table
coord3D, coord3D
*Distribution Table, name=Ori-3-DiscOrient_Table
coord3D, coord3D
*Distribution Table, name=Ori-4-DiscOrient_Table
coord3D, coord3D
*Distribution Table, name=Ori-5-DiscOrient_Table
coord3D, coord3D
** 
** MATERIALS
** 
*Material, name=al
*Density
 5.6393,
*Elastic
 1.8864e+09, 0.33
*Material, name=cfrp
*Density
 3.10451,
*Elastic, type=ENGINEERING CONSTANTS
 2.8224e+09, 1.9296e+08, 1.9296e+08,      0.348,      0.348,        0.3, 1.3104e+08, 1.3104e+08
  7.422e+07,
*Material, name=coat
*Density
1.,
*Elastic
1., 0.3
*Material, name=foam
*Density
 0.146,
*Elastic, type=ENGINEERING CONSTANTS
 1.89e+06, 1.89e+06, 1.89e+06,    0.315,    0.315,      0.3,  593000.,  593000.
  593000.,
*Material, name=honeycomb
*Density
 0.0935,
*Elastic, type=ENGINEERING CONSTANTS
144000.,  144000., 2.88e+06,      0.3,     0.01,     0.01,  144000.,  835000.
  504000.,
