*Heading
File generated by TexGen v3.13.1
************
*** MESH ***
************
*Node
1, -0.5, -0.5, -0.01
2, 0.166667, -0.5, -0.01
3, 0.833333, -0.5, -0.01
4, 1.5, -0.5, -0.01
5, -0.5, 0.166667, -0.01
6, 0.166667, 0.166667, -0.01
7, 0.833333, 0.166667, -0.01
8, 1.5, 0.166667, -0.01
9, -0.5, 0.833333, -0.01
10, 0.166667, 0.833333, -0.01
11, 0.833333, 0.833333, -0.01
12, 1.5, 0.833333, -0.01
13, -0.5, 1.5, -0.01
14, 0.166667, 1.5, -0.01
15, 0.833333, 1.5, -0.01
16, 1.5, 1.5, -0.01
17, -0.5, -0.5, 0.21
18, 0.166667, -0.5, 0.21
19, 0.833333, -0.5, 0.21
20, 1.5, -0.5, 0.21
** ... 12 like lines cut
*Element, Type=C3D8R
1, 2, 6, 5, 1, 18, 22, 21, 17
2, 3, 7, 6, 2, 19, 23, 22, 18
3, 4, 8, 7, 3, 20, 24, 23, 19
4, 6, 10, 9, 5, 22, 26, 25, 21
5, 7, 11, 10, 6, 23, 27, 26, 22
6, 8, 12, 11, 7, 24, 28, 27, 23
7, 10, 14, 13, 9, 26, 30, 29, 25
8, 11, 15, 14, 10, 27, 31, 30, 26
9, 12, 16, 15, 11, 28, 32, 31, 27
********************
*** ORIENTATIONS ***
********************
** Orientation vectors
** 1st vector represents the fibre direction
** 2nd vector is an arbitrary vector perpendicular to the first
*Distribution Table, Name=TexGenOrientationVectors
COORD3D,COORD3D
*Distribution, Location=Element, Table=TexGenOrientationVectors, Name=TexGenOrientationVectors, Input=plain_weave_3d.ori
*Orientation, Name=TexGenOrientations, Definition=coordinates
TexGenOrientationVectors
1, 0
********************
*** ELEMENT SETS ***
********************
** TexGen generates a number of element sets:
** All - Contains all elements
** Matrix - Contains all elements belonging to the matrix
** YarnX - Where X represents the yarn index
*ElSet, ElSet=AllElements, Generate
1, 9, 1
*ElSet, ElSet=Matrix
5
*ElSet, ElSet=Yarn0
1, 2
*ElSet, ElSet=Yarn1
8, 9
*ElSet, ElSet=Yarn2
4, 7
*ElSet, ElSet=Yarn3
3, 6
*****************
*** NODE SETS ***
*****************
** AllNodes - Node set containing all elements
*NSet, NSet=AllNodes, Generate
1, 32, 1
*****************
*** MATERIALS ***
*****************
*Material, Name=Mat0
*Elastic
3e+09, 0.2
*Expansion
6.5e-06
*Material, Name=Mat1
*Elastic, type=ENGINEERING CONSTANTS
2e+11, 1e+10, 1e+10, 0.3, 0.4, 0.4, 5e+09, 5e+09
5e+09
*Expansion, type=ORTHO
-2e-07, 3e-06, 3e-06
*Solid Section, ElSet=Matrix, Material=Mat0
1.0,
*Solid Section, ElSet=Yarn0, Material=Mat1, Orientation=TexGenOrientations
1.0,
*Solid Section, ElSet=Yarn1, Material=Mat1, Orientation=TexGenOrientations
1.0,
*Solid Section, ElSet=Yarn2, Material=Mat1, Orientation=TexGenOrientations
1.0,
*Solid Section, ElSet=Yarn3, Material=Mat1, Orientation=TexGenOrientations
1.0,
************************************
*** PERIODIC BOUNDARY CONDITIONS ***
************************************
*** ConstraintsDriver0 = e_x
*** ConstraintsDriver1 = e_y
*** ConstraintsDriver2 = e_z
*** ConstraintsDriver3 = e_xy
*** ConstraintsDriver4 = e_xz
*** ConstraintsDriver5 = e_yz
*Node
33, 0, 0, 0
*NSet, NSet=ConstraintsDriver0
33
*Node
34, 0, 0, 0
*NSet, NSet=ConstraintsDriver1
34
*Node
35, 0, 0, 0
*NSet, NSet=ConstraintsDriver2
35
*Node
36, 0, 0, 0
*NSet, NSet=ConstraintsDriver3
36
*Node
37, 0, 0, 0
*NSet, NSet=ConstraintsDriver4
37
*Node
38, 0, 0, 0
*NSet, NSet=ConstraintsDriver5
38
*NSet, NSet=FaceA, Unsorted

*NSet, NSet=FaceB, Unsorted

*NSet, NSet=FaceC, Unsorted

*NSet, NSet=FaceD, Unsorted

*NSet, NSet=FaceE, Unsorted
22, 23, 26, 27
*NSet, NSet=FaceF, Unsorted
6, 7, 10, 11
*NSet, NSet=Edge1, Unsorted

*NSet, NSet=Edge2, Unsorted

*NSet, NSet=Edge3, Unsorted

*NSet, NSet=Edge4, Unsorted

*NSet, NSet=Edge5, Unsorted
5, 9
*NSet, NSet=Edge6, Unsorted
8, 12
*NSet, NSet=Edge7, Unsorted
24, 28
*NSet, NSet=Edge8, Unsorted
21, 25
*NSet, NSet=Edge9, Unsorted
2, 3
*NSet, NSet=Edge10, Unsorted
14, 15
*NSet, NSet=Edge11, Unsorted
30, 31
*NSet, NSet=Edge12, Unsorted
18, 19
*NSet, NSet=MasterNode1, Unsorted
1
*NSet, NSet=MasterNode2, Unsorted
4
*NSet, NSet=MasterNode3, Unsorted
16
*NSet, NSet=MasterNode4, Unsorted
13
*NSet, NSet=MasterNode5, Unsorted
17
*NSet, NSet=MasterNode6, Unsorted
20
*NSet, NSet=MasterNode7, Unsorted
32
*NSet, NSet=MasterNode8, Unsorted
29
***************************
*** BOUNDARY CONDITIONS ***
***************************
*** Name: Translation stop Vertex 1 Type: Displacement/Rotation
*Boundary
MasterNode1, 1, 1
MasterNode1, 2, 2
MasterNode1, 3, 3

*****************
*** EQUATIONS ***
*****************
*Equation
3
FaceA, 1, 1.0, FaceB, 1, -1.0, ConstraintsDriver0, 1, -2
*Equation
2
FaceA, 2, 1.0, FaceB, 2, -1.0
*Equation
2
FaceA, 3, 1.0, FaceB, 3, -1.0
*Equation
3
FaceC, 1, 1.0, FaceD, 1, -1.0, ConstraintsDriver3, 1, -2
*Equation
3
FaceC, 2, 1.0, FaceD, 2, -1.0, ConstraintsDriver1, 1, -2
*Equation
2
FaceC, 3, 1.0, FaceD, 3, -1.0
*Equation
3
FaceE, 1, 1.0, FaceF, 1, -1.0, ConstraintsDriver4, 1, -0.22
*Equation
3
FaceE, 2, 1.0, FaceF, 2, -1.0, ConstraintsDriver5, 1, -0.22
*Equation
3
FaceE, 3, 1.0, FaceF, 3, -1.0, ConstraintsDriver2, 1, -0.22
*Equation
3
Edge2, 1, 1.0, Edge1, 1, -1.0, ConstraintsDriver0, 1, -2
*Equation
2
Edge2, 2, 1.0, Edge1, 2, -1.0
*Equation
2
Edge2, 3, 1.0, Edge1, 3, -1.0
*Equation
4
Edge3, 1, 1.0, Edge1, 1, -1.0, ConstraintsDriver0, 1, -2, ConstraintsDriver3, 1, -2
*Equation
3
Edge3, 2, 1.0, Edge1, 2, -1.0, ConstraintsDriver1, 1, -2
*Equation
2
Edge3, 3, 1.0, Edge1, 3, -1.0
*Equation
3
Edge4, 1, 1.0, Edge1, 1, -1.0, ConstraintsDriver3, 1, -2
*Equation
3
Edge4, 2, 1.0, Edge1, 2, -1.0, ConstraintsDriver1, 1, -2
*Equation
2
Edge4, 3, 1.0, Edge1, 3, -1.0
*Equation
3
Edge6, 1, 1.0, Edge5, 1, -1.0, ConstraintsDriver0, 1, -2
*Equation
2
Edge6, 2, 1.0, Edge5, 2, -1.0
*Equation
2
Edge6, 3, 1.0, Edge5, 3, -1.0
*Equation
4
Edge7, 1, 1.0, Edge5, 1, -1.0, ConstraintsDriver4, 1, -0.22, ConstraintsDriver0, 1, -2
*Equation
3
Edge7, 2, 1.0, Edge5, 2, -1.0, ConstraintsDriver5, 1, -0.22
*Equation
3
Edge7, 3, 1.0, Edge5, 3, -1.0, ConstraintsDriver2, 1, -0.22
*Equation
3
Edge8, 1, 1.0, Edge5, 1, -1.0, ConstraintsDriver4, 1, -0.22
*Equation
3
Edge8, 2, 1.0, Edge5, 2, -1.0, ConstraintsDriver5, 1, -0.22
*Equation
3
Edge8, 3, 1.0, Edge5, 3, -1.0, ConstraintsDriver2, 1, -0.22
*Equation
3
Edge10, 1, 1.0, Edge9, 1, -1.0, ConstraintsDriver3, 1, -2
*Equation
3
Edge10, 2, 1.0, Edge9, 2, -1.0, ConstraintsDriver1, 1, -2
*Equation
2
Edge10, 3, 1.0, Edge9, 3, -1.0
*Equation
4
Edge11, 1, 1.0, Edge9, 1, -1.0, ConstraintsDriver3, 1, -2, ConstraintsDriver4, 1, -0.22
*Equation
4
Edge11, 2, 1.0, Edge9, 2, -1.0, ConstraintsDriver1, 1, -2, ConstraintsDriver5, 1, -0.22
*Equation
3
Edge11, 3, 1.0, Edge9, 3, -1.0, ConstraintsDriver2, 1, -0.22
*Equation
3
Edge12, 1, 1.0, Edge9, 1, -1.0, ConstraintsDriver4, 1, -0.22
*Equation
3
Edge12, 2, 1.0, Edge9, 2, -1.0, ConstraintsDriver5, 1, -0.22
*Equation
3
Edge12, 3, 1.0, Edge9, 3, -1.0, ConstraintsDriver2, 1, -0.22
*Equation
3
MasterNode2, 1, 1.0, MasterNode1, 1, -1.0, ConstraintsDriver0, 1, -2
*Equation
2
MasterNode2, 2, 1.0, MasterNode1, 2, -1.0
*Equation
2
MasterNode2, 3, 1.0, MasterNode1, 3, -1.0
*Equation
4
MasterNode3, 1, 1.0, MasterNode1, 1, -1.0, ConstraintsDriver0, 1, -2, ConstraintsDriver3, 1, -2
*Equation
3
MasterNode3, 2, 1.0, MasterNode1, 2, -1.0, ConstraintsDriver1, 1, -2
*Equation
2
MasterNode3, 3, 1.0, MasterNode1, 3, -1.0
*Equation
3
MasterNode4, 1, 1.0, MasterNode1, 1, -1.0, ConstraintsDriver3, 1, -2
*Equation
3
MasterNode4, 2, 1.0, MasterNode1, 2, -1.0, ConstraintsDriver1, 1, -2
*Equation
2
MasterNode4, 3, 1.0, MasterNode1, 3, -1.0
*Equation
3
MasterNode5, 1, 1.0, MasterNode1, 1, -1.0, ConstraintsDriver4, 1, -0.22
*Equation
3
MasterNode5, 2, 1.0, MasterNode1, 2, -1.0, ConstraintsDriver5, 1, -0.22
*Equation
3
MasterNode5, 3, 1.0, MasterNode1, 3, -1.0, ConstraintsDriver2, 1, -0.22
*Equation
4
MasterNode6, 1, 1.0, MasterNode1, 1, -1.0, ConstraintsDriver4, 1, -0.22, ConstraintsDriver0, 1, -2
*Equation
3
MasterNode6, 2, 1.0, MasterNode1, 2, -1.0, ConstraintsDriver5, 1, -0.22
*Equation
3
MasterNode6, 3, 1.0, MasterNode1, 3, -1.0, ConstraintsDriver2, 1, -0.22
*Equation
5
MasterNode7, 1, 1.0, MasterNode1, 1, -1.0, ConstraintsDriver0, 1, -2, ConstraintsDriver4, 1, -0.22,
ConstraintsDriver3, 1, -2
*Equation
4
MasterNode7, 2, 1.0, MasterNode1, 2, -1.0, ConstraintsDriver1, 1, -2, ConstraintsDriver5, 1, -0.22
*Equation
3
MasterNode7, 3, 1.0, MasterNode1, 3, -1.0, ConstraintsDriver2, 1, -0.22
*Equation
4
MasterNode8, 1, 1.0, MasterNode1, 1, -1.0, ConstraintsDriver3, 1, -2, ConstraintsDriver4, 1, -0.22
*Equation
4
MasterNode8, 2, 1.0, MasterNode1, 2, -1.0, ConstraintsDriver1, 1, -2, ConstraintsDriver5, 1, -0.22
*Equation
3
MasterNode8, 3, 1.0, MasterNode1, 3, -1.0, ConstraintsDriver2, 1, -0.22
*******************
*** CREATE STEP ***
*******************
*** PREDEFINED FIELDS ***
*** Name: Initial temperature 0ºC all cells   Type: Temperature ***
*Initial Conditions, type=TEMPERATURE
AllNodes, 0.

*Step, Name=Isothermal linear perturbation step, perturbation
Elastic material property computation
*Static

***********************
*** OUTPUT REQUESTS ***
***********************
*Output, field
*Element Output, directions=YES
S,
*** FIELD OUTPUT: Output Request Fx ***
*Node Output, nset=ConstraintsDriver0
U,
*** FIELD OUTPUT: Output Request Fy ***
*Node Output, nset=ConstraintsDriver1
U,
*** FIELD OUTPUT: Ouput Request Fz ***
*Node Output, nset=ConstraintsDriver2
U,
*** FIELD OUTPUT: Output Request Shear_xy ***
*Node Output, nset=ConstraintsDriver3
U,
*** FIELD OUTPUT: Output Request Shear_zx ***
*Node Output, nset=ConstraintsDriver4
U,
*** FIELD OUTPUT: Output Request Shear_yz ***
*Node Output, nset=ConstraintsDriver5
U,

******************
*** LOAD CASES ***
******************
*Load Case, name=Load0
*Boundary, op=NEW
MasterNode1, 1, 1
MasterNode1, 2, 2
MasterNode1, 3, 3
*Cload
ConstraintsDriver0, 1, 0.88
*End Load Case

*Load Case, name=Load1
*Boundary, op=NEW
MasterNode1, 1, 1
MasterNode1, 2, 2
MasterNode1, 3, 3
*Cload
ConstraintsDriver1, 1, 0.88
*End Load Case

*Load Case, name=Load2
*Boundary, op=NEW
MasterNode1, 1, 1
MasterNode1, 2, 2
MasterNode1, 3, 3
*Cload
ConstraintsDriver2, 1, 0.88
*End Load Case

*Load Case, name=Load3
*Boundary, op=NEW
MasterNode1, 1, 1
MasterNode1, 2, 2
MasterNode1, 3, 3
*Cload
ConstraintsDriver3, 1, 0.88
*End Load Case

*Load Case, name=Load4
*Boundary, op=NEW
MasterNode1, 1, 1
MasterNode1, 2, 2
MasterNode1, 3, 3
*Cload
ConstraintsDriver4, 1, 0.88
*End Load Case

*Load Case, name=Load5
*Boundary, op=NEW
MasterNode1, 1, 1
MasterNode1, 2, 2
MasterNode1, 3, 3
*Cload
ConstraintsDriver5, 1, 0.88
*End Load Case


*End Step

*** STEP: Thermomechanical step ***
*Step, name=Thermomechanical step, perturbation
Coefficient of Thermal Expansion computation
*Static
*** PREDEFINED FIELDS ***
*** Name: Temperature steady 1ºC all cells   Type: Temperature ***
*Temperature
AllNodes, 1.
***********************
*** OUTPUT REQUESTS ***
***********************
*Output, field
*Element Output, directions=YES
S,
*** FIELD OUTPUT: Output Request Fx ***
*Node Output, nset=ConstraintsDriver0
U,
*** FIELD OUTPUT: Output Request Fy ***
*Node Output, nset=ConstraintsDriver1
U,
*** FIELD OUTPUT: Output Request Fz ***
*Node Output, nset=ConstraintsDriver2
U,
*End Step
