*Heading
** Job name: box_cus Model name: Model-1
** Generated by: Abaqus/CAE 2023
*Preprint, echo=NO, model=NO, history=NO, contact=NO
**
** PARTS
**
*Part, name=Part-1
*Node
      1,  0.476500005, -0.264999986
      2,  0.446500003, -0.234999999
      3, -0.446500003, -0.234999999
      4, -0.476500005, -0.264999986
      5,  0.476500005,  0.264999986
      6,  0.446500003,  0.234999999
      7, -0.446500003,  0.234999999
      8, -0.476500005,  0.264999986
      9,  0.471500009,  -0.25999999
     10,  0.466500014, -0.254999995
     11,  0.461499989,        -0.25
     12,  0.456499994, -0.245000005
     13,  0.451499999, -0.239999995
     14,  0.437570006, -0.234999999
     15,  0.428640008, -0.234999999
     16,   0.41971001, -0.234999999
     17,  0.410780013, -0.234999999
     18,  0.401849985, -0.234999999
     19,  0.392919987, -0.234999999
     20,   0.38398999, -0.234999999
** ... 2080 like lines cut
*Element, type=WARP2D4
  1,    1,    9,  621,  216
  2,    9,   10,  622,  621
  3,   10,   11,  623,  622
  4,   11,   12,  624,  623
  5,   12,   13,  625,  624
  6,   13,    2,   14,  625
  7,  216,  621,  626,  215
  8,  621,  622,  627,  626
  9,  622,  623,  628,  627
 10,  623,  624,  629,  628
 11,  624,  625,  630,  629
 12,  625,   14,   15,  630
 13,  215,  626,  631,  214
 14,  626,  627,  632,  631
 15,  627,  628,  633,  632
 16,  628,  629,  634,  633
 17,  629,  630,  635,  634
 18,  630,   15,   16,  635
 19,  214,  631,  636,  213
 20,  631,  632,  637,  636
** ... 1780 like lines cut
*Nset, nset=Set-1, generate
    1,  2100,     1
*Elset, elset=Set-1, generate
    1,  1800,     1
*Nset, nset=Set-2
   1,   4,   5,   8, 118, 119, 120, 121, 122, 123, 124, 125, 126, 127, 128, 129
 130, 131, 132, 133, 134, 135, 136, 137, 138, 139, 140, 141, 142, 143, 144, 145
 146, 147, 148, 149, 150, 151, 152, 153, 154, 155, 156, 157, 158, 159, 160, 161
 162, 163, 164, 165, 166, 167, 168, 169, 170, 171, 172, 173, 174, 175, 176, 177
 178, 179, 180, 181, 182, 183, 184, 185, 186, 187, 188, 189, 190, 191, 192, 193
 194, 195, 196, 197, 198, 199, 200, 201, 202, 203, 204, 205, 206, 207, 208, 209
 210, 211, 212, 213, 214, 215, 216, 217, 218, 219, 220, 221, 222, 223, 224, 225
 226, 227, 228, 229, 230, 231, 232, 233, 234, 235, 236, 237, 238, 239, 240, 241
 242, 243, 244, 245, 246, 247, 248, 249, 250, 251, 252, 253, 254, 255, 256, 257
 258, 259, 260, 261, 262, 263, 264, 265, 374, 375, 376, 377, 378, 379, 380, 381
 382, 383, 384, 385, 386, 387, 388, 389, 390, 391, 392, 393, 394, 395, 396, 397
 398, 399, 400, 401, 402, 403, 404, 405, 406, 407, 408, 409, 410, 411, 412, 413
 414, 415, 416, 417, 418, 419, 420, 421, 422, 423, 424, 425, 426, 427, 428, 429
 430, 431, 432, 433, 434, 435, 436, 437, 438, 439, 440, 441, 442, 443, 444, 445
 446, 447, 448, 449, 450, 451, 452, 453, 454, 455, 456, 457, 458, 459, 460, 461
 462, 463, 464, 465, 466, 467, 468, 469, 470, 471, 472, 473, 474, 475, 476, 477
 478, 479, 480, 481, 482, 483, 484, 485, 486, 487, 488, 489, 490, 491, 492, 493
 494, 495, 496, 497, 498, 499, 500, 501, 502, 503, 504, 505, 506, 507, 508, 509
 510, 511, 512, 513, 514, 515, 516, 517, 518, 519, 520, 521
*Elset, elset=Set-2
    1,    7,   13,   19,   25,   31,   37,   43,   49,   55,   61,   67,   73,   79,   85,   91
   97,  103,  109,  115,  121,  127,  133,  139,  145,  151,  157,  163,  169,  175,  181,  187
  193,  199,  205,  211,  217,  223,  229,  235,  241,  247,  253,  259,  265,  271,  277,  283
  289,  295,  301,  307,  313,  319,  325,  331,  337,  343,  349,  355,  361,  367,  373,  379
  385,  391,  397,  403,  409,  415,  421,  427,  433,  439,  445,  451,  457,  463,  469,  475
  481,  487,  493,  499,  505,  511,  517,  523,  529,  535,  541,  547,  553,  559,  565,  571
  577,  583,  589,  595,  606,  612,  618,  624,  630,  636,  642,  648,  654,  660,  666,  672
  678,  684,  690,  696,  702,  708,  714,  720,  726,  732,  738,  744,  750,  756,  762,  768
  774,  780,  786,  792,  798,  804,  810,  816,  822,  828,  834,  840,  846,  852,  858,  864
  870,  876,  882,  888,  894,  900,  901,  907,  913,  919,  925,  931,  937,  943,  949,  955
  961,  967,  973,  979,  985,  991,  997, 1003, 1009, 1015, 1021, 1027, 1033, 1039, 1045, 1051
 1057, 1063, 1069, 1075, 1081, 1087, 1093, 1099, 1105, 1111, 1117, 1123, 1129, 1135, 1141, 1147
 1153, 1159, 1165, 1171, 1177, 1183, 1189, 1195, 1206, 1212, 1218, 1224, 1230, 1236, 1242, 1248
 1254, 1260, 1266, 1272, 1278, 1284, 1290, 1296, 1302, 1308, 1314, 1320, 1326, 1332, 1338, 1344
 1350, 1356, 1362, 1368, 1374, 1380, 1386, 1392, 1398, 1404, 1410, 1416, 1422, 1428, 1434, 1440
 1446, 1452, 1458, 1464, 1470, 1476, 1482, 1488, 1494, 1500, 1506, 1512, 1518, 1524, 1530, 1536
 1542, 1548, 1554, 1560, 1566, 1572, 1578, 1584, 1590, 1596, 1602, 1608, 1614, 1620, 1626, 1632
 1638, 1644, 1650, 1656, 1662, 1668, 1674, 1680, 1686, 1692, 1698, 1704, 1710, 1716, 1722, 1728
 1734, 1740, 1746, 1752, 1758, 1764, 1770, 1776, 1782, 1788, 1794, 1800
*Distribution, name=Ori-1-DiscOrient, location=ELEMENT, Table=Ori-1-DiscOrient_Table
** Description: Distribution generated from Discrete Orientation
,           1.,           0.,           0.,           0.,           1.,           0.
1,          -1.,           0.,           0.,           0.,          -1.,           0.
2,          -1.,           0.,           0.,           0.,          -1.,           0.
3,          -1.,           0.,           0.,           0.,          -1.,           0.
4,          -1.,           0.,           0.,           0.,          -1.,           0.
5,          -1.,           0.,           0.,           0.,          -1.,           0.
6,          -1.,           0.,           0.,           0.,          -1.,           0.
7,          -1.,           0.,           0.,           0.,          -1.,           0.
8,          -1.,           0.,           0.,           0.,          -1.,           0.
9,          -1.,           0.,           0.,           0.,          -1.,           0.
10,          -1.,           0.,           0.,           0.,          -1.,           0.
11,          -1.,           0.,           0.,           0.,          -1.,           0.
12,          -1.,           0.,           0.,           0.,          -1.,           0.
13,          -1.,           0.,           0.,           0.,          -1.,           0.
14,          -1.,           0.,           0.,           0.,          -1.,           0.
15,          -1.,           0.,           0.,           0.,          -1.,           0.
16,          -1.,           0.,           0.,           0.,          -1.,           0.
17,          -1.,           0.,           0.,           0.,          -1.,           0.
18,          -1.,           0.,           0.,           0.,          -1.,           0.
19,          -1.,           0.,           0.,           0.,          -1.,           0.
20,          -1.,           0.,           0.,           0.,          -1.,           0.
** ... 1780 like lines cut
*Orientation, name=Ori-1, system=RECTANGULAR
Ori-1-DiscOrient
3, 0.
** Section: Section-1
*Solid Section, elset=Set-1, orientation=Ori-1, material=Material-1
,
*End Part
**  
**
** ASSEMBLY
**
*Assembly, name=Assembly
**  
*Instance, name=Part-1-1, part=Part-1
*End Instance
**  
*End Assembly
*Distribution Table, name=Ori-1-DiscOrient_Table
coord3D, coord3D
** 
** MATERIALS
** 
*Material, name=Material-1
*Elastic, type=ENGINEERING CONSTANTS
 2.059e+07, 1.42e+06, 1.42e+06,      0.3,      0.3,     0.34,  870000.,  870000.
  696000.,
** ----------------------------------------------------------------
** 
** STEP: Step-1
** 
*Step, name=Step-1, nlgeom=NO
*Static
1., 1., 1e-05, 1.
** 
** OUTPUT REQUESTS
** 
*Restart, write, frequency=0
** 
** FIELD OUTPUT: F-Output-1
** 
*Output, field, variable=PRESELECT
** 
** HISTORY OUTPUT: H-Output-1
** 
*Output, history, variable=PRESELECT
*End Step
