 Abaqus/Standard 2023                  DATE 09-Feb-2025 TIME 18:12:52
 SUMMARY OF JOB INFORMATION:
 STEP  INC ATT SEVERE EQUIL TOTAL  TOTAL      STEP       INC OF       DOF    IF
               DISCON ITERS ITERS  TIME/    TIME/LPF    TIME/LPF    MONITOR RIKS
               ITERS               FREQ
   1     1   1     0     1     1  0.00       0.00       0.000     
   1     2   1     0     1     1  0.00       0.00       0.000     
   1     3   1     0     1     1  0.00       0.00       0.000     
   1     4   1     0     1     1  0.00       0.00       0.000     
   1     5   1     0     1     1  0.00       0.00       0.000     
   1     6   1     0     1     1  0.00       0.00       0.000     
                          
 THE ANALYSIS HAS COMPLETED SUCCESSFULLY
