*Heading
** Job name: sg2_airfoil_2 Model name: Model-1
** Generated by: Abaqus/CAE 2017
*Preprint, echo=NO, model=NO, history=NO, contact=NO
**
** PARTS
**
*Part, name=Part-1
*Node
      1, 0.0345666073,  0.104599208
      2, 0.0593971014,    0.1041153
      3, 0.0842224956,  0.103430197
      4,  0.109041095,   0.10251569
      5,  0.133857936,  0.101364113
      6,  0.158674493, 0.0999740511
      7,  0.183491006, 0.0983448848
      8,  0.208276063, 0.0964758024
      9,  0.233081698, 0.0943482891
     10,  0.257869869, 0.0919079185
     11,  0.282627374, 0.0890655667
     12,  0.303475916, 0.0863435194
     13,  0.320017993, 0.0838509798
     14,  0.336481273, 0.0810571387
     15,  0.352924615, 0.0778942555
     16,   0.36933884, 0.0743010268
     17,  0.385724425, 0.0701647103
     18,   0.39333728, 0.0679500848
     19,  0.396219969, 0.0629456788
     20,  0.399665534, 0.0619433448
** ... 4586 like lines cut
*Element, type=CPS3
 1, 1553,  916,  119
 2,  118,  899, 1554
 3, 1596, 1552,  118
 4, 1815, 1792, 1816
 5, 1491,   64,   65
 6, 1601, 1541, 1528
 7, 1546,  147,  148
 8,   28, 1551,   27
 9, 1555, 1564,  119
10, 1564, 1553,  119
11, 1555,  119,  120
12, 1604, 1591, 1463
13,  118, 1552,  232
14,  118, 1554, 1596
15, 1604, 1463, 1427
16, 1467, 1613, 1607
17, 1607, 1466, 1467
18, 1664, 1698, 1612
19, 1594, 1651, 1613
20, 1630, 1613, 1592
** ... 220 like lines cut
*Element, type=CPS4R
 33,    7,  851,  943,  225
 34,  943,  851,    8,  224
 35,  942,  224,    8,  852
 36,  942,  852,    9,  223
 37,    9,  853,  941,  223
 38,   10,  222,  941,  853
 39,  850,    7,  225,  944
 40,    6,  850,  944,  226
 41,  849,    6,  226,  945
 42,    5,  849,  945,  227
 43,  848,    5,  227,  946
 44,    4,  848,  946,  228
 45,  940,  222,   10,  854
 46,  940,  854,   11,  221
 47,  221,   11,  855,  939
 48,  939,  855,   12,  220
 49,   12,  856,  938,  220
 50,  219,  938,  856,   13
 51,  219,   13,  857,  937
 52,  937,  857,   14,  218
** ... 4166 like lines cut
*Nset, nset=Set-1
  331,  332,  333,  334,  335,  336,  337,  338,  339,  340,  341,  342,  343,  344,  345,  346
  347,  348,  349,  350,  351,  352,  353,  354,  356,  357, 1004, 1005, 1006, 1007, 1008, 1009
 1010, 1011, 1012, 1013, 1014, 1015, 1016, 1017, 1018, 1019, 1020, 1021, 1022, 1023, 1024, 1025
 1026, 1027, 1028, 1029, 1030, 1031, 1032, 1033, 1034, 1035, 1036, 1037, 1038, 1039, 1040, 1041
 1042, 1043, 1044, 1045, 1046, 1047, 1048, 1049, 1050, 1051, 1052, 1053, 1054, 1055, 1056, 1057
 1058, 1059, 1060, 1061, 1062, 1063, 1064, 1065, 1066, 1067, 1068, 1069, 1070, 1071, 1072, 1073
 1074, 1075, 1076, 1077, 1078, 1079, 1080, 1081, 1082, 1083, 1084
*Elset, elset=Set-1
 1988, 1989, 1991, 1992, 1993, 1994, 1995, 2009, 2011, 2018, 2023, 2024, 2025, 2026, 2027, 2028
 2029, 2030, 2031, 2032, 2033, 2034, 2035, 2036, 2037, 2038, 2039, 2040, 2041, 2042, 2043, 2044
 2045, 2046, 2047, 2048, 2049, 2050, 2051, 2052, 2053, 2054, 2055, 2056, 2057, 2058, 2059, 2060
 2061, 2062, 2063, 2064, 2065, 2066, 2067, 2068, 2069, 2070, 2071, 2072, 2073, 2074, 2075, 2076
 2077, 2078, 2079, 2080, 2081, 2082, 2083, 2084, 2085, 2086, 2088, 2090, 2091, 2092, 2093, 2094
 2095, 2096, 2097, 2098, 2099, 2100, 2101, 2102, 2103, 2104, 2105, 2106, 2107, 2108, 2109, 2110
 2111, 2112, 2113, 2121, 2122, 2123, 2126, 2127, 2128, 2132, 2133
*Nset, nset=Set-3
  118,  119,  120,  121,  122,  123,  124,  125,  126,  127,  128,  129,  130,  131,  132,  133
  134,  135,  136,  137,  138,  214,  215,  216,  217,  218,  219,  220,  221,  222,  223,  224
  225,  226,  227,  228,  229,  230,  231,  232,  233,  234,  235,  236,  237,  238,  239,  240
  241,  242,  243,  244,  245,  246,  247,  248,  249,  250,  251,  252,  253,  254,  255,  256
  257,  258,  259,  260,  261,  262,  263,  264,  265,  266,  267,  268,  269,  270,  271,  272
  273,  274,  275,  276,  277,  278,  279,  280,  281,  282,  283,  284,  285,  286,  287,  288
  289,  290,  291,  292,  293,  294,  295,  296,  297,  298,  299,  300,  301,  302,  303,  304
  305,  306,  307,  308,  309,  310,  311,  312,  313,  314,  315,  316,  317,  318,  319,  320
  321,  322,  323,  324,  325,  326,  327,  328,  329,  358,  359,  372,  373,  374,  375,  376
  377,  378,  379,  380,  381,  382,  383,  384,  385,  386,  387,  388,  389,  390,  391,  392
  393,  394,  395,  396,  397,  398,  399,  400,  401,  402,  403,  404,  405,  406,  407,  408
  409,  410,  411,  412,  413,  414,  415,  416,  417,  418,  419,  420,  421,  422,  423,  424
  425,  426,  427,  428,  429,  430,  431,  432,  433,  434,  435,  436,  437,  438,  439,  440
  441,  442,  443,  444,  445,  446,  447,  448,  449,  450,  451,  452,  453,  454,  455,  456
  457,  458,  459,  460,  461,  462,  463,  464,  465,  466,  467,  468,  469,  470,  471,  472
  473,  474,  475,  476,  477,  478,  479,  480,  481,  482,  483,  484,  485,  486,  487,  488
  489,  490,  491,  492,  493,  494,  495,  496,  497,  498,  499,  500,  501,  502,  503,  504
  505,  506,  507,  508,  509,  510,  511,  512,  513,  514,  515,  516,  517,  518,  519,  520
  521,  522,  523,  524,  525,  526,  527,  528,  529,  530,  531,  532,  533,  534,  535,  536
  537,  538,  539,  540,  541,  542,  543,  544,  545,  546,  547,  548,  549,  550,  551,  552
** ... 54 like lines cut
*Elset, elset=Set-3, generate
 3728,  4426,     1
*Nset, nset=Set-4
    1,    2,    3,    4,    5,    6,    7,    8,    9,   10,   11,   12,   13,   14,   15,   16
   17,   18,   19,   20,   21,   22,   23,   24,   25,   26,   27,   28,   29,   30,   31,   32
   33,   34,   35,   36,   37,   38,   39,   40,   41,   42,   43,   44,   45,   46,   47,   48
   49,   50,   51,   52,   53,   54,   55,   56,   57,   58,   59,   60,   61,   62,   63,   64
   65,   66,   67,   68,   69,   70,   71,   72,   73,   74,   75,   76,   77,   78,   79,   80
   81,   82,   83,   84,   85,   86,   87,   88,   89,   90,   91,   92,   93,   94,   95,   96
   97,   98,   99,  100,  101,  102,  103,  104,  105,  106,  107,  108,  109,  110,  111,  112
  113,  114,  115,  116,  117,  845,  846,  847,  848,  849,  850,  851,  852,  853,  854,  855
  856,  857,  858,  859,  860,  861,  862,  863,  864,  865,  866,  867,  868,  869,  870,  871
  872,  873,  874,  875,  876,  877,  878,  879,  880,  881,  882,  883,  884,  885,  886,  887
  888,  889,  890,  891,  892,  893,  894,  895,  896,  897,  898, 2159, 2160, 2161, 2162, 2163
 2164, 2165, 2166, 2167, 2168, 2169, 2170, 2171, 2172, 2173, 2174, 2175, 2176, 2177, 2178, 2179
 2180, 2181, 2182, 2183, 2184, 2185, 2186, 2187, 2188, 2189, 2190, 2191, 2192, 2193, 2194, 2195
 2196, 2197, 2198, 2199, 2200, 2201, 2202, 2203, 2204, 2205, 2206, 2207, 2208, 2209, 2210, 2211
 2212, 2213, 2214, 2215, 2216, 2217, 2218, 2219, 2220, 2221, 2222, 2223, 2224, 2225, 2226, 2227
 2228, 2229, 2230, 2231, 2232, 2233, 2234, 2235, 2236, 2237, 2238, 2239, 2240, 2241, 2242, 2243
 2244, 2245, 2246, 2247, 2248, 2249, 2250, 2251, 2252, 2253, 2254, 2255, 2256, 2257, 2258, 2259
 2260, 2261, 2262, 2263, 2264, 2265, 2266, 2267, 2268, 2269, 2270, 2271, 2272, 2273, 2274, 2275
 2276, 2277, 2278, 2279, 2280, 2281, 2282, 2283, 2284, 2285, 2286, 2287, 2288, 2289, 2290, 2291
 2292, 2293, 2294, 2295, 2296, 2297, 2298, 2299, 2300, 2301, 2302, 2303, 2304, 2305, 2306, 2307
** ... 46 like lines cut
*Elset, elset=Set-4, generate
 1005,  1985,     1
*Nset, nset=Set-5
  138,  139,  140,  141,  142,  143,  144,  145,  146,  147,  148,  149,  150,  151,  152,  153
  154,  155,  156,  157,  158,  159,  160,  161,  162,  163,  164,  165,  166,  167,  168,  169
  170,  171,  172,  173,  174,  175,  176,  177,  178,  179,  180,  181,  182,  183,  184,  185
  186,  187,  188,  189,  190,  191,  192,  193,  194,  195,  196,  197,  198,  199,  200,  201
  202,  203,  204,  205,  206,  207,  208,  209,  210,  211,  212,  213,  214,  233,  234,  235
  236,  237,  238,  239,  240,  241,  242,  243,  244,  245,  246,  247,  248,  249,  250,  251
  252,  253,  254,  255,  256,  257,  258,  259,  260,  261,  262,  263,  264,  265,  266,  267
  268,  269,  270,  271,  272,  273,  274,  275,  276,  277,  278,  279,  280,  281,  282,  283
  284,  285,  286,  287,  288,  289,  290,  291,  292,  293,  294,  295,  296,  297,  298,  299
  300,  301,  302,  303,  304,  305,  306,  307, 1818, 1819, 1820, 1821, 1822, 1823, 1824, 1825
 1826, 1827, 1828, 1829, 1830, 1831, 1832, 1833, 1834, 1835, 1836, 1837, 1838, 1839, 1840, 1841
 1842, 1843, 1844, 1845, 1846, 1847, 1848, 1849, 1850, 1851, 1852, 1853, 1854, 1855, 1856, 1857
 1858, 1859, 1860, 1861, 1862, 1863, 1864, 1865, 1866, 1867, 1868, 1869, 1870, 1871, 1872, 1873
 1874, 1875, 1876, 1877, 1878, 1879, 1880, 1881, 1882, 1883, 1884, 1885, 1886, 1887, 1888, 1889
 1890, 1891, 1892, 1893, 1894, 1895, 1896, 1897, 1898, 1899, 1900, 1901, 1902, 1903, 1904, 1905
 1906, 1907, 1908, 1909, 1910, 1911, 1912, 1913, 1914, 1915, 1916, 1917, 1918, 1919, 1920, 1921
 1922, 1923, 1924, 1925, 1926, 1927, 1928, 1929, 1930, 1931, 1932, 1933, 1934, 1935, 1936, 1937
 1938, 1939, 1940, 1941, 1942, 1943, 1944, 1945, 1946, 1947, 1948, 1949, 1950, 1951, 1952, 1953
 1954, 1955, 1956, 1957, 1958, 1959, 1960, 1961, 1962, 1963, 1964, 1965, 1966, 1967, 1968, 1969
 1970, 1971, 1972, 1973, 1974, 1975, 1976, 1977, 1978, 1979, 1980, 1981, 1982, 1983, 1984, 1985
** ... 11 like lines cut
*Elset, elset=Set-5, generate
  579,  1004,     1
*Nset, nset=Set-6
   1,   2,   3,   4,   5,   6,   7,   8,   9,  10,  11,  12,  13,  14,  15,  16
  17,  18,  19,  20,  21,  22,  23,  24,  25,  26,  27,  28,  29,  30,  31,  32
  33,  34,  35,  36,  37,  38,  39,  40,  41,  42,  43,  44,  45,  46,  47,  48
  49,  50,  51,  52,  53,  54,  55,  56,  57,  58,  59,  60,  61,  62,  63,  64
  65,  66,  67,  68,  69,  70,  71,  72,  73,  74,  75,  76,  77,  78,  79,  80
  81,  82,  83,  84,  85,  86,  87,  88,  89,  90,  91,  92,  93,  94,  95,  96
  97,  98,  99, 100, 101, 102, 103, 104, 105, 106, 107, 108, 109, 110, 111, 112
 113, 114, 115, 116, 117, 845, 846, 847, 848, 849, 850, 851, 852, 853, 854, 855
 856, 857, 858, 859, 860, 861, 862, 863, 864, 865, 866, 867, 868, 869, 870, 871
 872, 873, 874, 875, 876, 877, 878, 879, 880, 881, 882, 883, 884, 885, 886, 887
 888, 889, 890, 891, 892, 893, 894, 895, 896, 897, 898
*Elset, elset=Set-6
    5,    8,   33,   34,   35,   36,   37,   38,   39,   40,   41,   42,   43,   44,   45,   46
   47,   48,   49,   50,   51,   52,   53,   54,   55,   56,   57,   58,   59,   60,   61,   62
   63,   64,   65,   66,   67,   69,   70,   73,   74,   75,   76,   78,   79,   81,   82,   85
   87,   89,   95,   99,  102,  103,  104,  105,  106,  107,  108,  109,  110,  111,  112,  113
  114,  115,  116,  117,  118,  119,  120,  121,  122,  123,  124,  125,  126,  127,  128,  129
  130,  131,  132,  133,  134,  135,  136,  137,  138,  139,  140,  141,  142,  143,  144,  145
  146,  147,  148,  149,  150,  151,  152,  153,  154,  155,  156,  157,  158,  159,  160,  161
  162,  163,  164,  165,  166,  167,  168,  169,  170,  171,  172,  173,  174,  175,  176,  177
  187,  189,  190,  191,  192,  193,  195,  197,  198,  200,  202,  206,  207,  209,  210,  217
  222,  223,  224,  231,  236,  237,  239,  242,  245,  248,  251,  252,  253,  312,  313,  319
  321,  324,  325,  327,  330,  334,  336,  341,  368,  369,  377, 1010, 1019, 1039, 1042, 1058
 1059, 1072, 1073, 1074, 1075, 1076, 1077, 1078, 1079, 1084, 1085, 1094, 1096, 1098, 1100, 1101
 1103, 1104, 1105, 1107, 1108, 1109, 1111, 1116, 1117, 1124, 1125, 1129, 1130, 1131, 1132, 1143
 1144, 1145, 1146, 1147, 1158, 1159, 1160, 1168, 1169, 1180, 1181, 1183, 1193, 1194, 1202, 1203
 1205, 1206, 1214, 1216, 1217, 1226, 1227, 1235, 1236, 1237, 1239, 1240, 1241, 1245, 1246, 1247
 1252, 1254, 1259, 1260, 1266, 1267, 1268, 1271, 1274, 1276, 1277, 1278, 1279, 1281, 1282, 1284
 1285, 1286, 1287, 1290, 1291, 1292, 1293, 1294, 1298, 1299, 1300, 1301, 1302, 1320, 1321, 1322
 1323, 1324, 1325, 1326, 1357, 1415, 1465, 1532, 1550, 1551, 1552, 1554, 1555, 1556, 1558, 1559
 1560, 1561, 1562, 1563, 1567, 1573, 1583, 1585, 1586, 1587, 1589, 1591, 1592, 1604, 1605, 1607
 1632, 1667, 1668, 1672, 1684, 1686, 1690, 1691, 1694, 1723, 1893, 1894, 1895, 1896, 1897, 1898
 1900, 1901, 1903, 1904, 1905, 1906, 1907, 1908, 1909, 1910, 1911, 1912, 1914, 1915, 1916, 1917
 1919, 1920, 1922, 1928, 1954
*Nset, nset=Set-8
  308,  309,  359,  372,  536,  537,  538,  539,  540,  541,  542,  543,  951,  952,  953,  954
  955,  956,  957,  958,  959,  960,  961,  962,  963,  964,  965,  966,  967, 1221, 1222, 1223
 1224, 1225, 1226, 1227, 1228, 1229, 1230, 1231, 1232
*Elset, elset=Set-8
 1997, 2020, 2047, 2064, 2065, 2066, 2067, 2068, 2069, 2070, 2071, 2072, 2073, 2074, 2075, 2076
 2077, 2078, 3676, 3677, 3679, 3680, 3682, 3684, 3686, 3687, 3688, 3689, 3691, 3692, 3693, 3694
 3695, 3696, 3697, 3699, 3700, 3701, 3702, 3703, 3705, 3706, 3707, 3708, 3709, 3710, 3711, 3712
 3713, 3714, 3715, 3717, 3718, 3719, 3720, 3721, 3722, 3723, 3730, 3731, 3739, 3741, 3746, 3747
 3751, 3752, 3973, 3974, 3975, 3976, 3977, 4098, 4099, 4100, 4101, 4102, 4219, 4220, 4228, 4229
*Nset, nset=Set-10
  358,  359,  360,  361,  362,  363,  364,  365,  366,  367,  368,  369,  370,  371,  372,  373
  374,  375,  376,  377,  378,  379,  380,  381,  382,  383,  384,  385,  386,  387,  388,  389
  390,  391,  392,  393,  394,  395,  396,  397,  398,  399,  400,  401,  402,  403,  404,  405
  406,  407,  408,  409,  410,  411,  412,  413,  414,  415,  416,  417,  418,  419,  420,  421
  422,  423,  424,  425,  426,  427,  428,  429,  430,  431,  432,  433,  434,  435,  436,  437
  438,  439,  440,  441,  442,  443,  444,  445,  446,  447,  448,  449,  450,  451,  452,  453
  454,  455,  456,  457,  458,  459,  460,  461,  462,  463,  464,  465,  466,  467,  468,  469
  470,  471,  472,  473,  474,  475,  476,  477,  478,  479,  480,  481,  482,  483,  484,  485
  486,  487,  488,  489,  490,  491,  492,  493,  494,  495,  496,  497,  498,  499,  500,  501
  502,  503,  504,  505,  506,  507,  508,  509,  510,  511,  512,  513,  514,  515,  516,  517
  518,  519,  520,  521,  522,  523,  524,  525,  526,  527,  528,  529,  530,  531,  532,  533
  534,  535, 1085, 1086, 1087, 1088, 1089, 1090, 1091, 1092, 1093, 1094, 1095, 1096, 1097, 1098
 1099, 1100, 1101, 1102, 1103, 1104, 1105, 1106, 1107, 1108, 1109, 1110, 1111, 1112, 1113, 1114
 1115, 1116, 1117, 1118, 1119, 1120, 1121, 1122, 1123, 1124, 1125, 1126, 1127, 1128, 1129, 1130
 1131, 1132, 1133, 1134, 1135, 1136, 1137, 1138, 1139, 1140, 1141, 1142, 1143, 1144, 1145, 1146
 1147, 1148, 1149, 1150, 1151, 1152, 1153, 1154, 1155, 1156, 1157, 1158, 1159, 1160, 1161, 1162
 1163, 1164, 1165, 1166, 1167, 1168, 1169, 1170, 1171, 1172, 1173, 1174, 1175, 1176, 1177, 1178
 1179, 1180, 1181, 1182, 1183, 1184, 1185, 1186, 1187, 1188, 1189, 1190, 1191, 1192, 1193, 1194
 1195, 1196, 1197, 1198, 1199, 1200, 1201, 1202, 1203, 1204, 1205, 1206, 1207, 1208, 1209, 1210
 1211, 1212, 1213, 1214, 1215, 1216, 1217, 1218, 1219, 1220, 3058, 3059, 3060, 3061, 3062, 3063
** ... 85 like lines cut
*Elset, elset=Set-10, generate
 2136,  3675,     1
*Distribution, name=Ori-2-DiscOrient, location=ELEMENT, Table=Ori-2-DiscOrient_Table
** Description: Distribution generated from Discrete Orientation
,           1.,           0.,           0.,           0.,           1.,           0.
1986, -0.871778666973114, 0.489899963140488,           0., -0.489899963140488, -0.871778666973114,           0.
1987, -0.632817685604095, -0.774300813674927,           0., 0.774300813674927, -0.632817685604095,           0.
1988,           0.,           1.,           0.,          -1.,           0.,           0.
1989, 0.999486029148102, 0.0320575051009655,           0., -0.0320575051009655, 0.999486029148102,           0.
1990, 0.640107452869415, -0.768285393714905,           0., 0.768285393714905, 0.640107452869415,           0.
1991, 0.999982953071594, -0.00583864562213421,           0., 0.00583864562213421, 0.999982953071594,           0.
1992, -0.999994397163391, -0.00333965383470058,           0., 0.00333965383470058, -0.999994397163391,           0.
1993, -0.999746024608612, 0.0225363317877054,           0., -0.0225363317877054, -0.999746024608612,           0.
1994,           0.,           1.,           0.,          -1.,           0.,           0.
1995, 0.428380489349365, -0.903598427772522,           0., 0.903598427772522, 0.428380489349365,           0.
1996, -0.999746024608612, 0.0225363317877054,           0., -0.0225363317877054, -0.999746024608612,           0.
1997, 0.226089596748352, 0.97410649061203,           0., -0.97410649061203, 0.226089596748352,           0.
1998, 0.999486029148102, 0.0320575051009655,           0., -0.0320575051009655, 0.999486029148102,           0.
1999, 0.976868808269501, 0.213839471340179,           0., -0.213839471340179, 0.976868808269501,           0.
2000, 0.999486029148102, 0.0320575051009655,           0., -0.0320575051009655, 0.999486029148102,           0.
2001, 0.999486029148102, 0.0320575051009655,           0., -0.0320575051009655, 0.999486029148102,           0.
2002, -0.999746024608612, 0.0225363317877054,           0., -0.0225363317877054, -0.999746024608612,           0.
2003, -0.999746024608612, 0.0225363317877054,           0., -0.0225363317877054, -0.999746024608612,           0.
2004,           0.,           1.,           0.,          -1.,           0.,           0.
2005, 0.571394562721252, -0.820675492286682,           0., 0.820675492286682, 0.571394562721252,           0.
** ... 130 like lines cut
*Distribution, name=Ori-3-DiscOrient, location=ELEMENT, Table=Ori-3-DiscOrient_Table
** Description: Distribution generated from Discrete Orientation
,           1.,           0.,           0.,           0.,           1.,           0.
3676, 0.999478757381439, -0.0322834625840187,           0., 0.0322834625840187, 0.999478757381439,           0.
3677, -0.998960673809052, -0.0455800294876099,           0., 0.0455800294876099, -0.998960673809052,           0.
3678,           0.,           1.,           0.,          -1.,           0.,           0.
3679,           0.,           1.,           0.,          -1.,           0.,           0.
3680,           0.,           1.,           0.,          -1.,           0.,           0.
3681, 0.99968683719635, -0.0250254031270742,           0., 0.0250254031270742, 0.99968683719635,           0.
3682, -0.999369144439697, -0.0355157740414143,           0., 0.0355157740414143, -0.999369144439697,           0.
3683, -0.999369144439697, -0.0355157740414143,           0., 0.0355157740414143, -0.999369144439697,           0.
3684, 0.99968683719635, -0.0250254031270742,           0., 0.0250254031270742, 0.99968683719635,           0.
3685,           0.,           1.,           0.,          -1.,           0.,           0.
3686, 0.999478757381439, -0.0322834625840187,           0., 0.0322834625840187, 0.999478757381439,           0.
3687, 0.999553501605988, -0.0298794284462929,           0., 0.0298794284462929, 0.999553501605988,           0.
3688, 0.999622642993927, -0.0274694804102182,           0., 0.0274694804102182, 0.999622642993927,           0.
3689, 0.99968683719635, -0.0250254031270742,           0., 0.0250254031270742, 0.99968683719635,           0.
3690, 0.99968683719635, -0.0250254031270742,           0., 0.0250254031270742, 0.99968683719635,           0.
3691, -0.999242782592773, -0.0389076471328735,           0., 0.0389076471328735, -0.999242782592773,           0.
3692, -0.999369144439697, -0.0355157740414143,           0., 0.0355157740414143, -0.999369144439697,           0.
3693, -0.999242782592773, -0.0389076471328735,           0., 0.0389076471328735, -0.999242782592773,           0.
3694, -0.999107003211975, -0.0422522537410259,           0., 0.0422522537410259, -0.999107003211975,           0.
3695, -0.999107003211975, -0.0422522537410259,           0., 0.0422522537410259, -0.999107003211975,           0.
** ... 32 like lines cut
*Distribution, name=Ori-4-DiscOrient, location=ELEMENT, Table=Ori-4-DiscOrient_Table
** Description: Distribution generated from Discrete Orientation
,           1.,           0.,           0.,           0.,           1.,           0.
1, 0.204879269003868, -0.978787243366241,           0., 0.978787243366241, 0.204879269003868,           0.
2, -0.207031026482582, -0.978334367275238,           0., 0.978334367275238, -0.207031026482582,           0.
3, -0.794522225856781, -0.607235074043274,           0., 0.607235074043274, -0.794522225856781,           0.
4, 0.112256273627281, 0.993679285049438,           0., -0.993679285049438, 0.112256273627281,           0.
5, 0.0891184359788895, 0.996021032333374,           0., -0.996021032333374, 0.0891184359788895,           0.
6, -0.301005631685257, 0.953622341156006,           0., -0.953622341156006, -0.301005631685257,           0.
7, 0.859806060791016, 0.510620772838593,           0., -0.510620772838593, 0.859806060791016,           0.
8, -0.785095810890198, 0.619374394416809,           0., -0.619374394416809, -0.785095810890198,           0.
9, 0.793839693069458, -0.608127117156982,           0., 0.608127117156982, 0.793839693069458,           0.
10, 0.610518634319305, -0.792001903057098,           0., 0.792001903057098, 0.610518634319305,           0.
11, 0.979123771190643, -0.203264847397804,           0., 0.203264847397804, 0.979123771190643,           0.
12, -0.0254788212478161, 0.999675333499908,           0., -0.999675333499908, -0.0254788212478161,           0.
13, -0.979214549064636, -0.202827259898186,           0., 0.202827259898186, -0.979214549064636,           0.
14, -0.611622273921967, -0.791149914264679,           0., 0.791149914264679, -0.611622273921967,           0.
15, -0.0254788212478161, 0.999675333499908,           0., -0.999675333499908, -0.0254788212478161,           0.
16, -0.0525099970400333, 0.998620390892029,           0., -0.998620390892029, -0.0525099970400333,           0.
17, -0.045464564114809, 0.998965978622437,           0., -0.998965978622437, -0.045464564114809,           0.
18, -0.172771841287613, 0.984961867332459,           0., -0.984961867332459, -0.172771841287613,           0.
19, -0.0601030066609383, 0.998192191123962,           0., -0.998192191123962, -0.0601030066609383,           0.
20, -0.045464564114809, 0.998965978622437,           0., -0.998965978622437, -0.045464564114809,           0.
** ... 558 like lines cut
*Orientation, name=Ori-4, system=RECTANGULAR
Ori-4-DiscOrient
3, 0.
** Region: (cfrp_le-1: Generated From Layup)
*Elset, elset=cfrp_le-1, generate
   1,  578,    1
** Section: cfrp_le-1
*Solid Section, elset=cfrp_le-1, composite, orientation=Ori-4, stack direction=3, layup=cfrp_le
1., 1, cfrp, 45., Ply-1
** Section: metal
*Solid Section, elset=Set-5, material=metal
,
** Section: foam
*Solid Section, elset=Set-4, material=foam
,
*Orientation, name=Ori-2, system=RECTANGULAR
Ori-2-DiscOrient
3, 0.
** Region: (cfrp-1: Generated From Layup)
*Elset, elset=cfrp-1, generate
 1986,  2135,     1
** Section: cfrp-1
*Solid Section, elset=cfrp-1, composite, orientation=Ori-2, stack direction=3, layup=cfrp
1., 1, cfrp, 0., Ply-1
*Distribution, name=Ori-1-DiscOrient, location=ELEMENT, Table=Ori-1-DiscOrient_Table
** Description: Distribution generated from Discrete Orientation
,           1.,           0.,           0.,           0.,           1.,           0.
2136,           1.,           0.,           0.,           0.,           1.,           0.
2137,           1.,           0.,           0.,           0.,           1.,           0.
2138,           1.,           0.,           0.,           0.,           1.,           0.
2139,           1.,           0.,           0.,           0.,           1.,           0.
2140,           1.,           0.,           0.,           0.,           1.,           0.
2141,           1.,           0.,           0.,           0.,           1.,           0.
2142,           1.,           0.,           0.,           0.,           1.,           0.
2143,           1.,           0.,           0.,           0.,           1.,           0.
2144,           1.,           0.,           0.,           0.,           1.,           0.
2145,           1.,           0.,           0.,           0.,           1.,           0.
2146,           1.,           0.,           0.,           0.,           1.,           0.
2147,           1.,           0.,           0.,           0.,           1.,           0.
2148,           1.,           0.,           0.,           0.,           1.,           0.
2149,           1.,           0.,           0.,           0.,           1.,           0.
2150,           1.,           0.,           0.,           0.,           1.,           0.
2151,           1.,           0.,           0.,           0.,           1.,           0.
2152,           1.,           0.,           0.,           0.,           1.,           0.
2153,           1.,           0.,           0.,           0.,           1.,           0.
2154,           1.,           0.,           0.,           0.,           1.,           0.
2155,           1.,           0.,           0.,           0.,           1.,           0.
** ... 1520 like lines cut
*Orientation, name=Ori-1, system=RECTANGULAR
Ori-1-DiscOrient
3, 0.
** Section: honeycomb
*Solid Section, elset=Set-10, orientation=Ori-1, material=honeycomb
,
*Orientation, name=Ori-3, system=RECTANGULAR
Ori-3-DiscOrient
3, 0.
** Region: (cfrp_back-1: Generated From Layup)
*Elset, elset=cfrp_back-1, generate
 3676,  3727,     1
** Section: cfrp_back-1
*Solid Section, elset=cfrp_back-1, composite, orientation=Ori-3, stack direction=3, layup=cfrp_back
1., 1, cfrp, 60., Ply-1
** Section: skin
*Solid Section, elset=Set-3, material=skin
,
*End Part
**  
**
** ASSEMBLY
**
*Assembly, name=Assembly
**  
*Instance, name=Part-1-1, part=Part-1
*End Instance
**  
*End Assembly
*Distribution Table, name=Ori-2-DiscOrient_Table
coord3D, coord3D
*Distribution Table, name=Ori-3-DiscOrient_Table
coord3D, coord3D
*Distribution Table, name=Ori-4-DiscOrient_Table
coord3D, coord3D
*Distribution Table, name=Ori-1-DiscOrient_Table
coord3D, coord3D
** 
** MATERIALS
** 
*Material, name=cfrp
*Density
1.,
*Elastic, type=ENGINEERING CONSTANTS
10.,  20.,  30., 0.12, 0.13, 0.23,  1.2,  1.3
  2.3,
*Material, name=foam
*Density
1.,
*Elastic
1.,0.
*Material, name=honeycomb
*Density
1.,
*Elastic, type=ENGINEERING CONSTANTS
10.,  20.,  30., 0.12, 0.13, 0.23,  1.2,  1.3
  2.3,
*Material, name=metal
*Density
1.,
*Elastic
1.,0.
*Material, name=skin
*Density
1.,
*Elastic
1.,0.
