*Heading
** Job name: sg2_plydrop_composite_section Model name: Model-1
** Generated by: Abaqus/CAE 2017
*Preprint, echo=NO, model=NO, history=NO, contact=NO
**
** PARTS
**
*Part, name=Part-1
*Node
      1,  -5.30000019,           2.
      2,  -5.71421337,           3.
      3,  -6.71421337,           2.
      4,  -6.30000019,           1.
      5,  -24.3799992,           1.
      6,  -24.3799992,           2.
      7,  -24.3799992,           0.
      8,   23.4755974,           0.
      9,  -5.30000019,           1.
     10,   23.4755974,           1.
     11,   23.4755974,           2.
     12,   23.4755974,           3.
     13,   -23.375555,           1.
     14,  -22.3711109,           1.
     15,  -21.3666668,           1.
     16,  -20.3622227,           1.
     17,  -19.3577785,           1.
     18,  -18.3533325,           1.
     19,  -17.3488884,           1.
     20,  -16.3444443,           1.
** ... 157 like lines cut
*Element, type=CPS4R
1, 1, 2, 3, 4
 2,  5, 13, 46,  6
 3, 13, 14, 45, 46
 4, 14, 15, 44, 45
 5, 15, 16, 43, 44
 6, 16, 17, 42, 43
 7, 17, 18, 41, 42
 8, 18, 19, 40, 41
 9, 19, 20, 39, 40
10, 20, 21, 38, 39
11, 21, 22, 37, 38
12, 22, 23, 36, 37
13, 23, 24, 35, 36
14, 24, 25, 34, 35
15, 25, 26, 33, 34
16, 26, 27, 32, 33
17, 27, 28, 31, 32
18, 28, 29, 30, 31
19, 29,  4,  3, 30
20,   5,   7,  47,  13
** ... 105 like lines cut
*Nset, nset=Set-1
  7,  8, 47, 48, 49, 50, 51, 52, 53, 54, 55, 56, 57, 58, 59, 60
 61, 62, 63, 64, 65, 66, 67, 68, 69, 70, 71, 72, 73, 74, 75, 76
 77, 78, 79, 80, 81, 82, 83, 84, 85, 86, 87, 88, 89, 90, 91, 92
 93,
*Elset, elset=Set-1, generate
 20,  67,   1
*Nset, nset=Set-3
   9,  10,  94,  95,  96,  97,  98,  99, 100, 101, 102, 103, 104, 105, 106, 107
 108, 109, 110, 111, 112, 113, 114, 115, 116, 117, 118, 119, 120, 121
*Elset, elset=Set-3
  39,  40,  41,  42,  43,  44,  45,  46,  47,  48,  49,  50,  51,  52,  53,  54
  55,  56,  57,  58,  59,  60,  61,  62,  63,  64,  65,  66,  67,  97,  98,  99
 100, 101, 102, 103, 104, 105, 106, 107, 108, 109, 110, 111, 112, 113, 114, 115
 116, 117, 118, 119, 120, 121, 122, 123, 124, 125
*Nset, nset=Set-5
  4,  5, 13, 14, 15, 16, 17, 18, 19, 20, 21, 22, 23, 24, 25, 26
 27, 28, 29
*Elset, elset=Set-5, generate
  2,  37,   1
*Nset, nset=Set-7
   1,   4,  11, 150, 151, 152, 153, 154, 155, 156, 157, 158, 159, 160, 161, 162
 163, 164, 165, 166, 167, 168, 169, 170, 171, 172, 173, 174, 175, 176, 177
*Elset, elset=Set-7
   1,  68,  69,  70,  71,  72,  73,  74,  75,  76,  77,  78,  79,  80,  81,  82
  83,  84,  85,  86,  87,  88,  89,  90,  91,  92,  93,  94,  95,  96,  97,  98
  99, 100, 101, 102, 103, 104, 105, 106, 107, 108, 109, 110, 111, 112, 113, 114
 115, 116, 117, 118, 119, 120, 121, 122, 123, 124, 125
*Distribution, name=Ori-1-DiscOrient, location=ELEMENT, Table=Ori-1-DiscOrient_Table
** Description: Distribution generated from Discrete Orientation
,           1.,           0.,           0.,           0.,           1.,           0.
20,           1.,           0.,           0.,           0.,           1.,           0.
21,           1.,           0.,           0.,           0.,           1.,           0.
22,           1.,           0.,           0.,           0.,           1.,           0.
23,           1.,           0.,           0.,           0.,           1.,           0.
24,           1.,           0.,           0.,           0.,           1.,           0.
25,           1.,           0.,           0.,           0.,           1.,           0.
26,           1.,           0.,           0.,           0.,           1.,           0.
27,           1.,           0.,           0.,           0.,           1.,           0.
28,           1.,           0.,           0.,           0.,           1.,           0.
29,           1.,           0.,           0.,           0.,           1.,           0.
30,           1.,           0.,           0.,           0.,           1.,           0.
31,           1.,           0.,           0.,           0.,           1.,           0.
32,           1.,           0.,           0.,           0.,           1.,           0.
33,           1.,           0.,           0.,           0.,           1.,           0.
34,           1.,           0.,           0.,           0.,           1.,           0.
35,           1.,           0.,           0.,           0.,           1.,           0.
36,           1.,           0.,           0.,           0.,           1.,           0.
37,           1.,           0.,           0.,           0.,           1.,           0.
38,           1.,           0.,           0.,           0.,           1.,           0.
39,           1.,           0.,           0.,           0.,           1.,           0.
** ... 28 like lines cut
*Distribution, name=Ori-2-DiscOrient, location=ELEMENT, Table=Ori-2-DiscOrient_Table
** Description: Distribution generated from Discrete Orientation
,           1.,           0.,           0.,           0.,           1.,           0.
97,           1.,           0.,           0.,           0.,           1.,           0.
98,           1.,           0.,           0.,           0.,           1.,           0.
99,           1.,           0.,           0.,           0.,           1.,           0.
100,           1.,           0.,           0.,           0.,           1.,           0.
101,           1.,           0.,           0.,           0.,           1.,           0.
102,           1.,           0.,           0.,           0.,           1.,           0.
103,           1.,           0.,           0.,           0.,           1.,           0.
104,           1.,           0.,           0.,           0.,           1.,           0.
105,           1.,           0.,           0.,           0.,           1.,           0.
106,           1.,           0.,           0.,           0.,           1.,           0.
107,           1.,           0.,           0.,           0.,           1.,           0.
108,           1.,           0.,           0.,           0.,           1.,           0.
109,           1.,           0.,           0.,           0.,           1.,           0.
110,           1.,           0.,           0.,           0.,           1.,           0.
111,           1.,           0.,           0.,           0.,           1.,           0.
112,           1.,           0.,           0.,           0.,           1.,           0.
113,           1.,           0.,           0.,           0.,           1.,           0.
114,           1.,           0.,           0.,           0.,           1.,           0.
115,           1.,           0.,           0.,           0.,           1.,           0.
116,           1.,           0.,           0.,           0.,           1.,           0.
** ... 9 like lines cut
*Distribution, name=Ori-3-DiscOrient, location=ELEMENT, Table=Ori-3-DiscOrient_Table
** Description: Distribution generated from Discrete Orientation
,           1.,           0.,           0.,           0.,           1.,           0.
2,           1.,           0.,           0.,           0.,           1.,           0.
3,           1.,           0.,           0.,           0.,           1.,           0.
4,           1.,           0.,           0.,           0.,           1.,           0.
5,           1.,           0.,           0.,           0.,           1.,           0.
6,           1.,           0.,           0.,           0.,           1.,           0.
7,           1.,           0.,           0.,           0.,           1.,           0.
8,           1.,           0.,           0.,           0.,           1.,           0.
9,           1.,           0.,           0.,           0.,           1.,           0.
10,           1.,           0.,           0.,           0.,           1.,           0.
11,           1.,           0.,           0.,           0.,           1.,           0.
12,           1.,           0.,           0.,           0.,           1.,           0.
13,           1.,           0.,           0.,           0.,           1.,           0.
14,           1.,           0.,           0.,           0.,           1.,           0.
15,           1.,           0.,           0.,           0.,           1.,           0.
16,           1.,           0.,           0.,           0.,           1.,           0.
17,           1.,           0.,           0.,           0.,           1.,           0.
18,           1.,           0.,           0.,           0.,           1.,           0.
19,           1.,           0.,           0.,           0.,           1.,           0.
*Distribution, name=Ori-4-DiscOrient, location=ELEMENT, Table=Ori-4-DiscOrient_Table
** Description: Distribution generated from Discrete Orientation
,           1.,           0.,           0.,           0.,           1.,           0.
1, 0.70710676908493, 0.70710676908493,           0., -0.70710676908493, 0.70710676908493,           0.
68,           1.,           0.,           0.,           0.,           1.,           0.
69,           1.,           0.,           0.,           0.,           1.,           0.
70,           1.,           0.,           0.,           0.,           1.,           0.
71,           1.,           0.,           0.,           0.,           1.,           0.
72,           1.,           0.,           0.,           0.,           1.,           0.
73,           1.,           0.,           0.,           0.,           1.,           0.
74,           1.,           0.,           0.,           0.,           1.,           0.
75,           1.,           0.,           0.,           0.,           1.,           0.
76,           1.,           0.,           0.,           0.,           1.,           0.
77,           1.,           0.,           0.,           0.,           1.,           0.
78,           1.,           0.,           0.,           0.,           1.,           0.
79,           1.,           0.,           0.,           0.,           1.,           0.
80,           1.,           0.,           0.,           0.,           1.,           0.
81,           1.,           0.,           0.,           0.,           1.,           0.
82,           1.,           0.,           0.,           0.,           1.,           0.
83,           1.,           0.,           0.,           0.,           1.,           0.
84,           1.,           0.,           0.,           0.,           1.,           0.
85,           1.,           0.,           0.,           0.,           1.,           0.
86,           1.,           0.,           0.,           0.,           1.,           0.
** ... 10 like lines cut
*Orientation, name=Ori-4, system=RECTANGULAR
Ori-4-DiscOrient
3, 0.
** Region: (CompositeLayup-4-1: Generated From Layup)
*Elset, elset=CompositeLayup-4-1
  1, 68, 69, 70, 71, 72, 73, 74, 75, 76, 77, 78, 79, 80, 81, 82
 83, 84, 85, 86, 87, 88, 89, 90, 91, 92, 93, 94, 95, 96
** Section: CompositeLayup-4-1
*Solid Section, elset=CompositeLayup-4-1, composite, orientation=Ori-4, stack direction=3, layup=CompositeLayup-4
1., 1, Material-1, 60., Ply-1
*Orientation, name=Ori-3, system=RECTANGULAR
Ori-3-DiscOrient
3, 0.
** Region: (CompositeLayup-3-1: Generated From Layup)
*Elset, elset=CompositeLayup-3-1, generate
  2,  19,   1
** Section: CompositeLayup-3-1
*Solid Section, elset=CompositeLayup-3-1, composite, orientation=Ori-3, stack direction=3, layup=CompositeLayup-3
1., 1, Material-1, 60., Ply-1
*Orientation, name=Ori-1, system=RECTANGULAR
Ori-1-DiscOrient
3, 0.
** Region: (CompositeLayup-1-1: Generated From Layup)
*Elset, elset=CompositeLayup-1-1, generate
 20,  67,   1
** Section: CompositeLayup-1-1
*Solid Section, elset=CompositeLayup-1-1, composite, orientation=Ori-1, stack direction=3, layup=CompositeLayup-1
1., 1, Material-1, 0., Ply-1
*Orientation, name=Ori-2, system=RECTANGULAR
Ori-2-DiscOrient
3, 0.
** Region: (CompositeLayup-2-1: Generated From Layup)
*Elset, elset=CompositeLayup-2-1, generate
  97,  125,    1
** Section: CompositeLayup-2-1
*Solid Section, elset=CompositeLayup-2-1, composite, orientation=Ori-2, stack direction=3, layup=CompositeLayup-2
1., 1, Material-1, 30., Ply-1
*End Part
**  
**
** ASSEMBLY
**
*Assembly, name=Assembly
**  
*Instance, name=Part-1-1, part=Part-1
*End Instance
**  
*End Assembly
*Distribution Table, name=Ori-1-DiscOrient_Table
coord3D, coord3D
*Distribution Table, name=Ori-2-DiscOrient_Table
coord3D, coord3D
*Distribution Table, name=Ori-3-DiscOrient_Table
coord3D, coord3D
*Distribution Table, name=Ori-4-DiscOrient_Table
coord3D, coord3D
** 
** MATERIALS
** 
*Material, name=Material-1
*Density
1.,
*Elastic, type=ENGINEERING CONSTANTS
10.,  20.,  30., 0.12, 0.13, 0.23,  1.2,  1.3
  2.3,
