*Heading
** Job name: sg2_min Model name: Model-1
** Generated by: Abaqus/CAE 2025
*Preprint, echo=NO, model=NO, history=NO, contact=NO
**
** PARTS
**
*Part, name=Part-1
*Node
      1,           5.,           5.
      2,           0.,           5.
      3,          -5.,           5.
      4,           5.,           0.
      5,           0.,           0.
      6,          -5.,           0.
      7,           5.,          -5.
      8,           0.,          -5.
      9,          -5.,          -5.
*Element, type=CPE4
1, 1, 2, 5, 4
2, 2, 3, 6, 5
3, 4, 5, 8, 7
4, 5, 6, 9, 8
*Nset, nset=Set-1, generate
 1,  9,  1
*Elset, elset=Set-1, generate
 1,  4,  1
*Nset, nset=Set-2, generate
 7,  9,  1
*Elset, elset=Set-2
 3, 4
*Distribution, name=Ori-1-DiscOrient, location=ELEMENT, Table=Ori-1-DiscOrient_Table
** Description: Distribution generated from Discrete Orientation
,           1.,           0.,           0.,           0.,           1.,           0.
1,           1.,           0.,           0.,           0.,           1.,           0.
2,           1.,           0.,           0.,           0.,           1.,           0.
3,           1.,           0.,           0.,           0.,           1.,           0.
4,           1.,           0.,           0.,           0.,           1.,           0.
*Orientation, name=Ori-1, system=RECTANGULAR
Ori-1-DiscOrient
3, 0.
** Section: Section-1
*Solid Section, elset=Set-1, orientation=Ori-1, material=Material-1
,
*End Part
**  
**
** ASSEMBLY
**
*Assembly, name=Assembly
**  
*Instance, name=Part-1-1, part=Part-1
*End Instance
**  
*End Assembly
*Distribution Table, name=Ori-1-DiscOrient_Table
coord3D, coord3D
** 
** MATERIALS
** 
*Material, name=Material-1
*Density
1.,
*Elastic, type=ENGINEERING CONSTANTS
1000., 200., 300., 0.12, 0.13, 0.23,  12.,  13.
  23.,
