*Heading
** Job name: sg2_i_simple_eo2 Model name: Model-1
** Generated by: Abaqus/CAE 2023
*Preprint, echo=NO, model=NO, history=NO, contact=NO
**
** PARTS
**
*Part, name=Part-1
*Node
      1, -0.0126999998, -0.00584199978
      2, -0.0126999998, -0.00634999992
      3, 0.0126999998, -0.00634999992
      4,           0., -0.00584199978
      5, 0.0126999998, -0.00584199978
      6, 0.0126999998, 0.00584199978
      7, 0.0126999998, 0.00634999992
      8, -0.0126999998, 0.00634999992
      9,           0., 0.00584199978
     10, -0.0126999998, 0.00584199978
     11, -0.0126999998, 0.0053340001
     12, -0.000508000026, 0.0053340001
     13, -0.000508000026, -0.0053340001
     14, -0.0126999998, -0.0053340001
     15, 0.0126999998, -0.0053340001
     16, 0.000508000026, -0.0053340001
     17, 0.000508000026, 0.0053340001
     18, 0.0126999998, 0.0053340001
     19,     -0.01143, -0.00634999992
     20, -0.0101600001, -0.00634999992
** ... 369 like lines cut
*Element, type=CPS8R
 1,   1,   2,  19,  46, 147, 148, 149, 150
 2,  46,  19,  20,  45, 149, 151, 152, 153
 3,  45,  20,  21,  44, 152, 154, 155, 156
 4,  44,  21,  22,  43, 155, 157, 158, 159
 5,  43,  22,  23,  42, 158, 160, 161, 162
 6,  42,  23,  24,  41, 161, 163, 164, 165
 7,  41,  24,  25,  40, 164, 166, 167, 168
 8,  40,  25,  26,  39, 167, 169, 170, 171
 9,  39,  26,  27,  38, 170, 172, 173, 174
10,  38,  27,  28,   4, 173, 175, 176, 177
11,   4,  28,  29,  55, 176, 178, 179, 180
12,  55,  29,  30,  54, 179, 181, 182, 183
13,  54,  30,  31,  53, 182, 184, 185, 186
14,  53,  31,  32,  52, 185, 187, 188, 189
15,  52,  32,  33,  51, 188, 190, 191, 192
16,  51,  33,  34,  50, 191, 193, 194, 195
17,  50,  34,  35,  49, 194, 196, 197, 198
18,  49,  35,  36,  48, 197, 199, 200, 201
19,  48,  36,  37,  47, 200, 202, 203, 204
20,  47,  37,   3,   5, 203, 205, 206, 207
** ... 72 like lines cut
*Element, type=CPS6M
41, 117,  40,  39, 269, 171, 270
42, 112,  96,  97, 271, 272, 273
43, 107,  91,  90, 274, 247, 275
70, 140,  77,  76, 334, 232, 335
71, 135,  97,  96, 336, 272, 337
72, 130,  54,  53, 338, 186, 339
*Nset, nset=Set-1
   6,   7,   8,   9,  10,  56,  57,  58,  59,  60,  61,  62,  63,  64,  65,  66
  67,  68,  69,  70,  71,  72,  73,  74,  75,  76,  77,  78,  79,  80,  81,  82
  83,  84,  85,  86,  87,  88,  89,  90,  91,  92, 208, 209, 210, 211, 212, 213
 214, 215, 216, 217, 218, 219, 220, 221, 222, 223, 224, 225, 226, 227, 228, 229
 230, 231, 232, 233, 234, 235, 236, 237, 238, 239, 240, 241, 242, 243, 244, 245
 246, 247, 248, 249, 250, 251, 252, 253, 254, 255, 256, 257, 258, 259, 260, 261
 262, 263, 264, 265, 266, 267, 268
*Elset, elset=Set-1, generate
 21,  40,   1
*Nset, nset=Set-2
   1,   2,   3,   4,   5,  19,  20,  21,  22,  23,  24,  25,  26,  27,  28,  29
  30,  31,  32,  33,  34,  35,  36,  37,  38,  39,  40,  41,  42,  43,  44,  45
  46,  47,  48,  49,  50,  51,  52,  53,  54,  55, 147, 148, 149, 150, 151, 152
 153, 154, 155, 156, 157, 158, 159, 160, 161, 162, 163, 164, 165, 166, 167, 168
 169, 170, 171, 172, 173, 174, 175, 176, 177, 178, 179, 180, 181, 182, 183, 184
 185, 186, 187, 188, 189, 190, 191, 192, 193, 194, 195, 196, 197, 198, 199, 200
 201, 202, 203, 204, 205, 206, 207
*Elset, elset=Set-2, generate
  1,  20,   1
*Nset, nset=Set-3
   1,   4,   9,  10,  38,  39,  40,  41,  42,  43,  44,  45,  46,  84,  85,  86
  87,  88,  89,  90,  91,  92,  93,  94,  95,  96,  97,  98,  99, 100, 150, 153
 156, 159, 162, 165, 168, 171, 174, 177, 241, 244, 247, 250, 253, 256, 259, 262
 265, 268, 272, 281, 291, 306, 309, 312, 315, 318, 320
*Elset, elset=Set-3
  1,  2,  3,  4,  5,  6,  7,  8,  9, 10, 31, 32, 33, 34, 35, 36
 37, 38, 39, 40, 41, 42, 43, 44, 45, 46, 47, 48, 49, 50, 51, 52
 53, 54, 55, 56, 57, 58, 59, 60, 61, 62, 63, 64, 65, 66, 67, 68
 69, 71, 75, 76, 86, 87, 88, 89, 90, 91
*Nset, nset=Set-5
   4,   5,   6,   9,  47,  48,  49,  50,  51,  52,  53,  54,  55,  75,  76,  77
  78,  79,  80,  81,  82,  83,  93,  94,  95,  96,  97,  98,  99, 100, 180, 183
 186, 189, 192, 195, 198, 201, 204, 207, 211, 214, 217, 220, 223, 226, 229, 232
 235, 238, 272, 281, 291, 306, 309, 312, 315, 318, 320
*Elset, elset=Set-5
 11, 12, 13, 14, 15, 16, 17, 18, 19, 20, 21, 22, 23, 24, 25, 26
 27, 28, 29, 30, 42, 46, 49, 57, 58, 59, 60, 61, 62, 70, 71, 72
 73, 74, 75, 76, 77, 78, 79, 80, 81, 82, 83, 84, 85, 86, 87, 88
 89, 90, 91, 92, 93, 94, 95, 96, 97, 98
*Distribution, name=Ori-1-DiscOrient, location=ELEMENT, Table=Ori-1-DiscOrient_Table
** Description: Distribution generated from Discrete Orientation
,           1.,           0.,           0.,           0.,           1.,           0.
41,          -1.,           0.,           0.,           0.,          -1.,           0.
42,           0.,           1.,           0.,          -1.,           0.,           0.
43,          -1.,           0.,           0.,           0.,          -1.,           0.
44,          -1.,           0.,           0.,           0.,          -1.,           0.
45,          -1.,           0.,           0.,           0.,          -1.,           0.
46,           0.,           1.,           0.,          -1.,           0.,           0.
47,          -1.,           0.,           0.,           0.,          -1.,           0.
48,          -1.,           0.,           0.,           0.,          -1.,           0.
49,           0.,           1.,           0.,          -1.,           0.,           0.
50,          -1.,           0.,           0.,           0.,          -1.,           0.
51,          -1.,           0.,           0.,           0.,          -1.,           0.
52,          -1.,           0.,           0.,           0.,          -1.,           0.
53,          -1.,           0.,           0.,           0.,          -1.,           0.
54,          -1.,           0.,           0.,           0.,          -1.,           0.
55,          -1.,           0.,           0.,           0.,          -1.,           0.
56,          -1.,           0.,           0.,           0.,          -1.,           0.
57,           0.,           1.,           0.,          -1.,           0.,           0.
58,           0.,           1.,           0.,          -1.,           0.,           0.
59,           0.,           1.,           0.,          -1.,           0.,           0.
60,           0.,           1.,           0.,          -1.,           0.,           0.
** ... 9 like lines cut
*Distribution, name=Ori-2-DiscOrient, location=ELEMENT, Table=Ori-2-DiscOrient_Table
** Description: Distribution generated from Discrete Orientation
,           1.,           0.,           0.,           0.,           1.,           0.
70,           1.,           0.,           0.,           0.,           1.,           0.
71,           0.,          -1.,           0.,           1.,           0.,           0.
72,           1.,           0.,           0.,           0.,           1.,           0.
73,           1.,           0.,           0.,           0.,           1.,           0.
74,           1.,           0.,           0.,           0.,           1.,           0.
75,           0.,          -1.,           0.,           1.,           0.,           0.
76,           0.,          -1.,           0.,           1.,           0.,           0.
77,           1.,           0.,           0.,           0.,           1.,           0.
78,           1.,           0.,           0.,           0.,           1.,           0.
79,           1.,           0.,           0.,           0.,           1.,           0.
80,           1.,           0.,           0.,           0.,           1.,           0.
81,           1.,           0.,           0.,           0.,           1.,           0.
82,           1.,           0.,           0.,           0.,           1.,           0.
83,           1.,           0.,           0.,           0.,           1.,           0.
84,           1.,           0.,           0.,           0.,           1.,           0.
85,           1.,           0.,           0.,           0.,           1.,           0.
86,           0.,          -1.,           0.,           1.,           0.,           0.
87,           0.,          -1.,           0.,           1.,           0.,           0.
88,           0.,          -1.,           0.,           1.,           0.,           0.
89,           0.,          -1.,           0.,           1.,           0.,           0.
** ... 9 like lines cut
** Section: aluminum
*Solid Section, elset=Set-2, material=aluminum
,
** Section: aluminum
*Solid Section, elset=Set-1, material=aluminum
,
*Orientation, name=Ori-1, system=RECTANGULAR
Ori-1-DiscOrient
3, 0.
** Region: (CompositeLayup-1-1: Generated From Layup)
*Elset, elset=CompositeLayup-1-1, generate
 41,  69,   1
** Section: CompositeLayup-1-1
*Solid Section, elset=CompositeLayup-1-1, composite, orientation=Ori-1, stack direction=3, layup=CompositeLayup-1
1., 1, gfrp, 0., Ply-1
*Orientation, name=Ori-2, system=RECTANGULAR
Ori-2-DiscOrient
3, 0.
** Region: (CompositeLayup-2-1: Generated From Layup)
*Elset, elset=CompositeLayup-2-1, generate
 70,  98,   1
** Section: CompositeLayup-2-1
*Solid Section, elset=CompositeLayup-2-1, composite, orientation=Ori-2, stack direction=3, layup=CompositeLayup-2
1., 1, cfrp, 90., Ply-1
*End Part
**  
**
** ASSEMBLY
**
*Assembly, name=Assembly
**  
*Instance, name=Part-1-1, part=Part-1
*End Instance
**  
*End Assembly
*Distribution Table, name=Ori-1-DiscOrient_Table
coord3D, coord3D
*Distribution Table, name=Ori-2-DiscOrient_Table
coord3D, coord3D
** 
** MATERIALS
** 
*Material, name=aluminum
*Density
2640.,
*Elastic
 7.1e+10, 0.33
*Material, name=cfrp
*Elastic, type=ENGINEERING CONSTANTS
 1.26e+11,   1.1e+10,   1.1e+10,      0.28,      0.28,       0.4,   6.6e+09,   6.6e+09
 3.929e+09,
*Material, name=gfrp
*Density
1903.,
*Elastic, type=LAMINA
 3.76e+10, 9.584e+09,      0.26, 4.081e+09, 4.081e+09, 4.081e+09
