*Heading
** Job name: sg2_sandwich Model name: Model-1
** Generated by: Abaqus/CAE 2025
*Preprint, echo=NO, model=NO, history=NO, contact=NO
**
** PARTS
**
*Part, name=Part-1
*Node
      1,         -10.,          15.
      2,  -7.59629917,          15.
      3,   7.59629917,          15.
      4,          10.,          15.
      5,          10.,          20.
      6,         -10.,          20.
      7,  -1.20185041,   1.80277562
      8,           0.,   3.60555124
      9,   1.20185041,   1.80277562
     10,  -2.40370083,           0.
     11,         -10.,  -11.3944483
     12,         -10.,         -15.
     13,  -1.20185041,  -1.80277562
     14,         -10.,   11.3944483
     15,           0.,           0.
     16,   2.40370083,           0.
     17,          10.,   11.3944483
     18,           0.,  -3.60555124
     19,  -7.59629917,         -15.
     20,   1.20185041,  -1.80277562
** ... 153 like lines cut
*Element, type=CPS4R
 1,   1,   2, 138,  45
 2,   2,  26, 139, 138
 3,  26,  27, 140, 139
 4,  27,  28, 141, 140
 5,  28,  29, 142, 141
 6,  29,  30, 143, 142
 7,  30,  31, 144, 143
 8,  31,  32, 145, 144
 9,  32,   3, 146, 145
10,   3,   4,  33, 146
11,  45, 138, 147,  44
12, 138, 139, 148, 147
13, 139, 140, 149, 148
14, 140, 141, 150, 149
15, 141, 142, 151, 150
16, 142, 143, 152, 151
17, 143, 144, 153, 152
18, 144, 145, 154, 153
19, 145, 146, 155, 154
20, 146,  33,  34, 155
** ... 100 like lines cut
*Nset, nset=Set-1
   1,   2,   3,   4,   5,   6,  12,  19,  21,  22,  23,  24,  26,  27,  28,  29
  30,  31,  32,  33,  34,  35,  36,  37,  38,  39,  40,  41,  42,  43,  44,  45
 100, 101, 102, 103, 104, 105, 106, 107, 108, 109, 110, 111, 112, 113, 114, 115
 116, 117, 118, 119, 138, 139, 140, 141, 142, 143, 144, 145, 146, 147, 148, 149
 150, 151, 152, 153, 154, 155, 156, 157, 158, 159, 160, 161, 162, 163, 164, 165
 166, 167, 168, 169, 170, 171, 172, 173
*Elset, elset=Set-1
   1,   2,   3,   4,   5,   6,   7,   8,   9,  10,  11,  12,  13,  14,  15,  16
  17,  18,  19,  20,  21,  22,  23,  24,  25,  26,  27,  28,  29,  30,  76,  77
  78,  79,  80,  81,  82,  83,  84,  85,  86,  87,  88,  89,  90,  91,  92,  93
  94,  95,  96,  97,  98,  99, 100, 101, 102, 103, 104, 105
*Nset, nset=Set-2
   1,   2,   3,   4,   7,   8,   9,  10,  11,  12,  13,  14,  15,  16,  17,  18
  19,  20,  23,  24,  25,  46,  47,  48,  49,  50,  51,  52,  53,  54,  55,  56
  57,  58,  59,  60,  61,  62,  63,  64,  65,  66,  67,  68,  69,  70,  71,  72
  73,  74,  75,  76,  77,  78,  79,  80,  81,  82,  83,  84,  85,  86,  87,  88
  89,  90,  91,  92,  93,  94,  95,  96,  97,  98,  99, 120, 121, 122, 123, 124
 125, 126, 127, 128, 129, 130, 131, 132, 133, 134, 135, 136, 137
*Elset, elset=Set-2
  31,  32,  33,  34,  35,  36,  37,  38,  39,  40,  41,  42,  43,  44,  45,  46
  47,  48,  49,  50,  51,  52,  53,  54,  55,  56,  57,  58,  59,  60,  61,  62
  63,  64,  65,  66,  67,  68,  69,  70,  71,  72,  73,  74,  75, 106, 107, 108
 109, 110, 111, 112, 113, 114, 115, 116, 117, 118, 119, 120
*Nset, nset=Set-3
  5,  6, 35, 36, 37, 38, 39, 40, 41, 42, 43
*Elset, elset=Set-3, generate
 21,  30,   1
*Nset, nset=Set-5
  21,  22, 102, 103, 104, 105, 106, 107, 108, 109, 110
*Elset, elset=Set-5, generate
  78,  105,    3
*Distribution, name=Ori-1-DiscOrient, location=ELEMENT, Table=Ori-1-DiscOrient_Table
** Description: Distribution generated from Discrete Orientation
,           1.,           0.,           0.,           0.,           1.,           0.
1,           1.,           0.,           0.,           0.,           1.,           0.
2,           1.,           0.,           0.,           0.,           1.,           0.
3,           1.,           0.,           0.,           0.,           1.,           0.
4,           1.,           0.,           0.,           0.,           1.,           0.
5,           1.,           0.,           0.,           0.,           1.,           0.
6,           1.,           0.,           0.,           0.,           1.,           0.
7,           1.,           0.,           0.,           0.,           1.,           0.
8,           1.,           0.,           0.,           0.,           1.,           0.
9,           1.,           0.,           0.,           0.,           1.,           0.
10,           1.,           0.,           0.,           0.,           1.,           0.
11,           1.,           0.,           0.,           0.,           1.,           0.
12,           1.,           0.,           0.,           0.,           1.,           0.
13,           1.,           0.,           0.,           0.,           1.,           0.
14,           1.,           0.,           0.,           0.,           1.,           0.
15,           1.,           0.,           0.,           0.,           1.,           0.
16,           1.,           0.,           0.,           0.,           1.,           0.
17,           1.,           0.,           0.,           0.,           1.,           0.
18,           1.,           0.,           0.,           0.,           1.,           0.
19,           1.,           0.,           0.,           0.,           1.,           0.
20,           1.,           0.,           0.,           0.,           1.,           0.
** ... 10 like lines cut
*Orientation, name=Ori-1, system=RECTANGULAR
Ori-1-DiscOrient
3, 0.
** Region: (comp:Set-1), (Material Orientation:Picked)
*Elset, elset=_I1, internal, generate
  1,  30,   1
** Section: comp
*Solid Section, elset=_I1, orientation=Ori-1, material=comp
,
** Section: alum
*Solid Section, elset=Set-2, material=alum
,
*Distribution, name=Ori-2-DiscOrient, location=ELEMENT, Table=Ori-2-DiscOrient_Table
** Description: Distribution generated from Discrete Orientation
,           1.,           0.,           0.,           0.,           1.,           0.
76,          -1.,           0.,           0.,           0.,          -1.,           0.
77,          -1.,           0.,           0.,           0.,          -1.,           0.
78,          -1.,           0.,           0.,           0.,          -1.,           0.
79,          -1.,           0.,           0.,           0.,          -1.,           0.
80,          -1.,           0.,           0.,           0.,          -1.,           0.
81,          -1.,           0.,           0.,           0.,          -1.,           0.
82,          -1.,           0.,           0.,           0.,          -1.,           0.
83,          -1.,           0.,           0.,           0.,          -1.,           0.
84,          -1.,           0.,           0.,           0.,          -1.,           0.
85,          -1.,           0.,           0.,           0.,          -1.,           0.
86,          -1.,           0.,           0.,           0.,          -1.,           0.
87,          -1.,           0.,           0.,           0.,          -1.,           0.
88,          -1.,           0.,           0.,           0.,          -1.,           0.
89,          -1.,           0.,           0.,           0.,          -1.,           0.
90,          -1.,           0.,           0.,           0.,          -1.,           0.
91,          -1.,           0.,           0.,           0.,          -1.,           0.
92,          -1.,           0.,           0.,           0.,          -1.,           0.
93,          -1.,           0.,           0.,           0.,          -1.,           0.
94,          -1.,           0.,           0.,           0.,          -1.,           0.
95,          -1.,           0.,           0.,           0.,          -1.,           0.
** ... 10 like lines cut
*Orientation, name=Ori-2, system=RECTANGULAR
Ori-2-DiscOrient
3, 0.
** Region: (comp:Set-1), (Material Orientation:Picked)
*Elset, elset=_I3, internal, generate
  76,  105,    1
** Section: comp
*Solid Section, elset=_I3, orientation=Ori-2, material=comp
,
*End Part
**  
**
** ASSEMBLY
**
*Assembly, name=Assembly
**  
*Instance, name=Part-1-1, part=Part-1
*End Instance
**  
*End Assembly
*Distribution Table, name=Ori-1-DiscOrient_Table
coord3D, coord3D
*Distribution Table, name=Ori-2-DiscOrient_Table
coord3D, coord3D
** 
** MATERIALS
** 
*Material, name=alum
*Density
1.,
*Elastic
50., 0.3
*Material, name=comp
*Density
1.,
*Elastic, type=ENGINEERING CONSTANTS
1000.,100.,100., 0.3, 0.3, 0.4, 20., 20.
 10.,
