*Heading
** Job name: Job-1 Model name: Model-1
** Generated by: Abaqus/CAE 2023
*Preprint, echo=NO, model=NO, history=NO, contact=NO
**
** PARTS
**
*Part, name=Part-1
*Node
      1,           0.,         -0.5,         -0.5
      2,           0., -0.449999988,         -0.5
      3,           0., -0.400000006,         -0.5
      4,           0., -0.349999994,         -0.5
      5,           0., -0.300000012,         -0.5
      6,           0.,        -0.25,         -0.5
      7,           0., -0.200000003,         -0.5
      8,           0., -0.150000006,         -0.5
      9,           0., -0.100000001,         -0.5
     10,           0., -0.0500000007,         -0.5
     11,           0.,           0.,         -0.5
     12,           0., 0.0500000007,         -0.5
     13,           0.,  0.100000001,         -0.5
     14,           0.,  0.150000006,         -0.5
     15,           0.,  0.200000003,         -0.5
     16,           0.,         0.25,         -0.5
     17,           0.,  0.300000012,         -0.5
     18,           0.,  0.349999994,         -0.5
     19,           0.,  0.400000006,         -0.5
     20,           0.,  0.449999988,         -0.5
** ... 2983 like lines cut
*Element, type=C3D20R
  1,   43,   44,   65,   64,    1,    2,   23,   22,  886,  885,  884,  883,  887,  888,  889,
      890,  892,  891,  893,  894
  2,   44,   45,   66,   65,    2,    3,   24,   23,  897,  896,  895,  885,  898,  899,  900,
      888,  891,  901,  902,  893
  3,   45,   46,   67,   66,    3,    4,   25,   24,  905,  904,  903,  896,  906,  907,  908,
      899,  901,  909,  910,  902
  4,   46,   47,   68,   67,    4,    5,   26,   25,  913,  912,  911,  904,  914,  915,  916,
      907,  909,  917,  918,  910
  5,   47,   48,   69,   68,    5,    6,   27,   26,  921,  920,  919,  912,  922,  923,  924,
      915,  917,  925,  926,  918
  6,   48,   49,   70,   69,    6,    7,   28,   27,  929,  928,  927,  920,  930,  931,  932,
      923,  925,  933,  934,  926
  7,   49,   50,   71,   70,    7,    8,   29,   28,  937,  936,  935,  928,  938,  939,  940,
      931,  933,  941,  942,  934
  8,   50,   51,   72,   71,    8,    9,   30,   29,  945,  944,  943,  936,  946,  947,  948,
      939,  941,  949,  950,  942
  9,   51,   52,   73,   72,    9,   10,   31,   30,  953,  952,  951,  944,  954,  955,  956,
      947,  949,  957,  958,  950
 10,   52,   53,   74,   73,   10,   11,   32,   31,  961,  960,  959,  952,  962,  963,  964,
      955,  957,  965,  966,  958
** ... 780 like lines cut
*Nset, nset=_PickedSet5, internal, generate
    1,  3003,     1
*Elset, elset=_PickedSet5, internal, generate
   1,  400,    1
*Orientation, name=Ori-1
1., 0., 0., 0., 1., 0.
3, 45.
** Section: Section-2
*Solid Section, elset=_PickedSet5, orientation=Ori-1, material=Material-2
,
*End Part
**  
**
** ASSEMBLY
**
*Assembly, name=Assembly
**  
*Instance, name=Part-1-1, part=Part-1
*End Instance
**  
*End Assembly
** 
** MATERIALS
** 
*Material, name=Material-1
*Density
1000.,
*Elastic
 1e+09, 0.3
*Material, name=Material-2
*Density
1000.,
*Elastic, type=ENGINEERING CONSTANTS
 1e+11, 1e+10, 1e+10,   0.3,   0.3,   0.1, 5e+09, 5e+09
 2e+09,
** ----------------------------------------------------------------
** 
** STEP: Step-1
** 
*Step, name=Step-1, nlgeom=NO
*Static
1., 1., 1e-05, 1.
** 
** OUTPUT REQUESTS
** 
*Restart, write, frequency=0
** 
** FIELD OUTPUT: F-Output-1
** 
*Output, field, variable=PRESELECT
** 
** HISTORY OUTPUT: H-Output-1
** 
*Output, history, variable=PRESELECT
*End Step
