*Heading
** Job name: ud_fiber_3d Model name: UDFiberRVE
** Generated by: Abaqus/CAE 2025
*Preprint, echo=NO, model=NO, history=NO, contact=NO
**
** PARTS
**
*Part, name=RVE
*Node
      1,         0.75,          0.5,           1.
      2,         0.75,          0.5,           0.
      3,           1.,           0.,           0.
      4,           0.,           0.,           0.
      5,           0.,           1.,           0.
      6,           1.,           1.,           0.
      7,           0.,           1.,           1.
      8,           0.,           0.,           1.
      9,           1.,           0.,           1.
     10,           1.,           1.,           1.
     11,   0.73776412,  0.422745764,           1.
     12,  0.702254236,  0.353053689,           1.
     13,  0.646946311,  0.297745764,           1.
     14,  0.577254236,   0.26223588,           1.
     15,          0.5,         0.25,           1.
     16,  0.422745764,   0.26223588,           1.
     17,  0.353053689,  0.297745764,           1.
     18,  0.297745764,  0.353053689,           1.
     19,   0.26223588,  0.422745764,           1.
     20,         0.25,          0.5,           1.
** ... 3326 like lines cut
*Element, type=C3D8R
  1, 1344,  291,  290, 1346,  194,   26,   25,  196
  2, 1346,  290,  289, 1347,  196,   25,   24,  197
  3, 1343,  292,  291, 1344,  193,   27,   26,  194
  4, 1345,  293,  292, 1343,  195,   28,   27,  193
  5, 1382, 1355, 1356, 1364,  232,  205,  206,  214
  6, 1367, 1354, 1355, 1382,  217,  204,  205,  232
  7, 1350, 1351, 1363, 1361,  200,  201,  213,  211
  8, 1372, 1361, 1349, 1371,  222,  211,  199,  221
  9, 1346, 1380, 1362, 1344,  196,  230,  212,  194
 10, 1360, 1363, 1352, 1353,  210,  213,  202,  203
 11, 1365, 1368, 1361, 1363,  215,  218,  211,  213
 12, 1355, 1354,  279,  278,  205,  204,   14,   13
 13, 1356, 1355,  278,  277,  206,  205,   13,   12
 14, 1345, 1343, 1379, 1369,  195,  193,  229,  219
 15, 1369, 1379, 1362, 1383,  219,  229,  212,  233
 16, 1375, 1374, 1350, 1376,  225,  224,  200,  226
 17,  289,  288, 1370, 1347,   24,   23,  220,  197
 18, 1348,  294,  293, 1345,  198,   29,   28,  195
 19, 1370, 1371, 1349, 1347,  220,  221,  199,  197
 20,  285, 1376, 1372,  286,   20,  226,  222,   21
** ... 2736 like lines cut
*Nset, nset=FIBRE
    1,    2,   11,   12,   13,   14,   15,   16,   17,   18,   19,   20,   21,   22,   23,   24
   25,   26,   27,   28,   29,   30,   31,   32,   33,   34,   35,   36,   37,   38,   39,   40
   41,   42,   43,   44,   45,   46,   47,   48,  193,  194,  195,  196,  197,  198,  199,  200
  201,  202,  203,  204,  205,  206,  207,  208,  209,  210,  211,  212,  213,  214,  215,  216
  217,  218,  219,  220,  221,  222,  223,  224,  225,  226,  227,  228,  229,  230,  231,  232
  233,  234,  235,  236,  237,  238,  239,  240,  241,  242,  243,  244,  245,  246,  247,  248
  249,  250,  251,  252,  253,  254,  255,  256,  257,  258,  259,  260,  261,  262,  263,  264
  265,  266,  267,  268,  269,  270,  271,  272,  273,  274,  275,  276,  277,  278,  279,  280
  281,  282,  283,  284,  285,  286,  287,  288,  289,  290,  291,  292,  293,  294,  295,  296
  297,  298,  299,  300,  301,  302,  303,  304,  305,  306,  307,  308,  309,  310,  311,  312
  313,  314,  315,  316,  317,  318,  319,  320,  321,  322,  323,  324,  325,  326,  327,  328
  329,  330,  331,  332,  333,  334,  335,  336,  337,  338,  339,  340,  341,  342,  343,  344
  345,  346,  347,  348,  349,  350,  351,  352,  353,  354,  355,  356,  357,  358,  359,  360
  361,  362,  363,  364,  365,  366,  367,  368,  369,  370,  371,  372,  373,  374,  375,  376
  377,  378,  379,  380,  381,  382,  383,  384,  385,  386,  387,  388,  389,  390,  391,  392
  393,  394,  395,  396,  397,  398,  399,  400,  401,  402,  403,  404,  405,  406,  407,  408
  409,  410,  411,  412,  413,  414,  415,  416,  417,  418,  419,  420,  421,  422,  423,  424
  425,  426,  427,  428,  429,  430,  431,  432,  433,  434,  435,  436,  437,  438,  439,  440
  441,  442,  443,  444,  445,  446,  447,  448,  449,  450,  451,  452,  453,  454,  455,  456
  457,  458,  459,  460,  461,  462,  463,  464,  465,  466,  467,  468,  469,  470,  471,  472
** ... 34 like lines cut
*Elset, elset=FIBRE, generate
   1,  650,    1
*Nset, nset=MATRIX
    1,    2,    3,    4,    5,    6,    7,    8,    9,   10,   11,   12,   13,   14,   15,   16
   17,   18,   19,   20,   21,   22,   23,   24,   25,   26,   27,   28,   29,   30,   31,   32
   33,   34,   35,   36,   37,   38,   39,   40,   41,   42,   43,   44,   45,   46,   47,   48
   49,   50,   51,   52,   53,   54,   55,   56,   57,   58,   59,   60,   61,   62,   63,   64
   65,   66,   67,   68,   69,   70,   71,   72,   73,   74,   75,   76,   77,   78,   79,   80
   81,   82,   83,   84,   85,   86,   87,   88,   89,   90,   91,   92,   93,   94,   95,   96
   97,   98,   99,  100,  101,  102,  103,  104,  105,  106,  107,  108,  109,  110,  111,  112
  113,  114,  115,  116,  117,  118,  119,  120,  121,  122,  123,  124,  125,  126,  127,  128
  129,  130,  131,  132,  133,  134,  135,  136,  137,  138,  139,  140,  141,  142,  143,  144
  145,  146,  147,  148,  149,  150,  151,  152,  153,  154,  155,  156,  157,  158,  159,  160
  161,  162,  163,  164,  165,  166,  167,  168,  169,  170,  171,  172,  173,  174,  175,  176
  177,  178,  179,  180,  181,  182,  183,  184,  185,  186,  187,  188,  189,  190,  191,  192
  275,  276,  277,  278,  279,  280,  281,  282,  283,  284,  285,  286,  287,  288,  289,  290
  291,  292,  293,  294,  295,  296,  297,  298,  299,  300,  301,  302,  303,  304,  305,  306
  307,  308,  309,  310,  311,  312,  313,  314,  315,  316,  317,  318,  319,  320,  321,  322
  323,  324,  325,  326,  327,  328,  329,  330,  331,  332,  333,  334,  335,  336,  337,  338
  339,  340,  341,  342,  343,  344,  345,  346,  347,  348,  349,  350,  351,  352,  353,  354
  355,  356,  357,  358,  359,  360,  361,  362,  363,  364,  365,  366,  367,  368,  369,  370
  371,  372,  373,  374,  375,  376,  377,  378,  379,  380,  381,  382,  383,  384,  385,  386
  387,  388,  389,  390,  391,  392,  393,  394,  395,  396,  397,  398,  399,  400,  401,  402
** ... 154 like lines cut
*Elset, elset=MATRIX, generate
  651,  2756,     1
*Orientation, name=Ori-1
1., 0., 0., 0., 1., 0.
3, 0.
** Section: Fibre_Section
*Solid Section, elset=FIBRE, orientation=Ori-1, material=Fibre_Mat
,
** Section: Matrix_Section
*Solid Section, elset=MATRIX, material=Matrix_Mat
,
*End Part
**  
**
** ASSEMBLY
**
*Assembly, name=Assembly
**  
*Instance, name=RVE-1, part=RVE
*End Instance
**  
*End Assembly
** 
** MATERIALS
** 
*Material, name=Fibre_Mat
*Elastic, type=ENGINEERING CONSTANTS
 1.5e+10, 1.5e+10, 2.3e+11,     0.2,     0.2,    0.25, 1.5e+10, 1.5e+10
   2e+10,
*Material, name=Matrix_Mat
*Elastic
 3.5e+09, 0.35
