*Heading
** Job name: rve_inclusion Model name: Model-1
** Generated by: Abaqus/CAE 2017
*Preprint, echo=NO, model=NO, history=NO, contact=NO
**
** PARTS
**
*Part, name=composite
*Node
      1, -0.103065059,  -7.8647544e-10,           0.
      2,           0.,           0., -0.183532581
      3,           0., -0.151185796, -0.226778686
      4, -0.100000001, -0.173205078, -0.346410155
      5,           0., -0.110148542,           0.
      6,           0.,           0.,         -0.5
      7,         -0.5,           0.,         -0.5
      8,         -0.5,           0.,           0.
      9,           0.,         -0.5,         -0.5
     10,         -0.5,         -0.5,         -0.5
     11,         -0.5,         -0.5,           0.
     12,           0.,         -0.5,           0.
     13, 0.0960768908,           0., -0.0277350098
     14,  0.103065059,  7.86475496e-10,           0.
     15, 0.0866025388, -0.0500000007,           0.
     16,          0.5,           0.,           0.
     17,          0.5,           0.,         -0.5
     18,          0.5,         -0.5,           0.
     19,          0.5,         -0.5,         -0.5
     20,           0.,           0.,  0.183532581
** ... 14496 like lines cut
*Element, type=C3D10
   1, 1001, 1002, 1003, 1004, 2000, 1999, 1998, 2002, 2001, 2003
   2, 1005, 1006, 1007, 1008, 2006, 2005, 2004, 2008, 2007, 2009
   3, 1005, 1009, 1001, 1002, 2012, 2011, 2010, 2014, 2013, 2000
   4, 1005, 1007, 1010, 1011, 2004, 2016, 2015, 2018, 2017, 2019
   5, 1005, 1009, 1008, 1012, 2012, 2020, 2008, 2022, 2021, 2023
   6, 1005, 1011, 1009, 1012, 2018, 2024, 2012, 2022, 2025, 2021
   7, 1007, 1008, 1013, 1011, 2009, 2027, 2026, 2017, 2028, 2029
   8, 1007, 1010, 1014, 1015, 2016, 2031, 2030, 2033, 2032, 2034
   9,  385, 1016, 1017, 1018, 2037, 2036, 2035, 2039, 2038, 2040
  10, 1007, 1019, 1006, 1020, 2042, 2041, 2005, 2044, 2043, 2045
  11, 1007, 1014, 1020, 1015, 2030, 2046, 2044, 2033, 2034, 2047
  12, 1005, 1015, 1006, 1004, 2049, 2048, 2006, 2051, 2050, 2052
  13, 1007, 1021, 1006, 1019, 2054, 2053, 2005, 2042, 2055, 2041
  14, 1007, 1008, 1006, 1021, 2009, 2007, 2005, 2054, 2056, 2053
  15, 1022, 1015, 1004, 1023, 2058, 2050, 2057, 2060, 2059, 2061
  16, 1022, 1014, 1010, 1015, 2063, 2031, 2062, 2058, 2034, 2032
  17, 1022, 1024, 1025, 1026, 2066, 2065, 2064, 2068, 2067, 2069
  18, 1022, 1003, 1026, 1027, 2071, 2070, 2068, 2073, 2072, 2074
  19, 1022, 1024, 1028, 1029, 2066, 2076, 2075, 2078, 2077, 2079
  20, 1030, 1031, 1021, 1032, 2082, 2081, 2080, 2084, 2083, 2085
** ... 9823 like lines cut
*Nset, nset=Set-matrix
     1,     2,     3,     4,     5,     6,     7,     8,     9,    10,    11,    12,    13,    14,    15,    16
    17,    18,    19,    20,    21,    22,    23,    24,    25,    26,    28,    29,    30,    31,    32,    33
    34,    35,    36,    37,    38,    39,    40,    41,    42,    43,    44,    45,    46,    47,    48,    49
    50,    51,    52,    53,    54,    55,    56,    57,    58,    59,    60,    61,    62,    63,    64,    65
    66,    67,    68,    69,    70,    71,    72,    73,    74,    75,    76,    77,    78,    79,    80,    81
    82,    83,    84,    85,    86,    87,    88,    89,    90,    91,    92,    93,    94,    95,    96,    97
    98,    99,   100,   101,   102,   103,   104,   105,   106,   107,   108,   109,   110,   111,   112,   113
   114,   115,   116,   117,   118,   119,   120,   121,   122,   123,   124,   125,   126,   127,   128,   129
   130,   131,   132,   133,   134,   135,   136,   137,   138,   139,   140,   141,   142,   143,   144,   145
   146,   147,   148,   149,   150,   151,   152,   153,   154,   155,   156,   157,   158,   159,   160,   161
   162,   163,   164,   165,   166,   167,   169,   170,   171,   172,   173,   174,   175,   176,   177,   178
   179,   180,   181,   182,   183,   184,   185,   186,   187,   188,   189,   190,   191,   193,   194,   195
   196,   197,   198,   199,   200,   201,   202,   203,   204,   205,   206,   207,   208,   209,   210,   211
   212,   213,   214,   215,   216,   217,   218,   219,   220,   221,   222,   223,   224,   225,   226,   227
   228,   229,   230,   231,   232,   233,   234,   235,   236,   237,   238,   239,   240,   241,   242,   243
   244,   245,   246,   247,   248,   249,   250,   251,   252,   253,   254,   255,   256,   257,   258,   259
   260,   261,   262,   263,   264,   265,   266,   267,   268,   269,   270,   271,   272,   273,   274,   275
   276,   277,   278,   279,   280,   281,   282,   283,   284,   285,   286,   287,   288,   289,   290,   291
   292,   293,   294,   295,   296,   297,   298,   299,   300,   301,   302,   303,   304,   305,   306,   307
   308,   309,   310,   311,   312,   313,   314,   315,   316,   317,   318,   319,   320,   321,   322,   323
** ... 879 like lines cut
*Elset, elset=Set-matrix
    1,    2,    3,    4,    5,    6,    7,    8,    9,   10,   11,   12,   13,   14,   15,   16
   17,   18,   19,   20,   21,   22,   23,   24,   25,   26,   27,   28,   29,   30,   31,   32
   33,   34,   35,   36,   37,   38,   39,   40,   41,   42,   43,   44,   45,   46,   47,   48
   49,   50,   51,   52,   53,   54,   55,   56,   57,   58,   59,   60,   61,   62,   63,   64
   65,   66,   67,   68,   69,   70,   71,   72,   73,   74,   75,   76,   77,   78,   79,   80
   81,   82,   83,   84,   85,   86,   87,   88,   89,   90,   91,   92,   93,   94,   95,   96
   97,   98,   99,  100,  101,  102,  103,  104,  105,  106,  107,  108,  109,  110,  111,  112
  113,  114,  115,  116,  117,  118,  119,  120,  121,  122,  123,  124,  125,  126,  127,  128
  129,  130,  131,  132,  133,  134,  135,  136,  137,  138,  139,  140,  141,  142,  143,  144
  145,  146,  147,  148,  149,  150,  151,  152,  153,  154,  155,  156,  157,  158,  159,  160
  161,  162,  163,  164,  165,  166,  167,  168,  169,  170,  171,  172,  173,  174,  175,  176
  177,  178,  179,  180,  181,  182,  183,  184,  185,  186,  187,  188,  189,  190,  191,  192
  193,  194,  195,  196,  197,  198,  199,  200,  201,  202,  203,  204,  205,  206,  207,  208
  209,  210,  211,  212,  213,  214,  215,  216,  217,  218,  219,  220,  221,  222,  223,  224
  225,  226,  227,  228,  229,  230,  231,  232,  233,  234,  235,  236,  237,  238,  239,  240
  241,  242,  243,  244,  245,  246,  247,  248,  249,  250,  251,  252,  253,  254,  255,  256
  257,  258,  259,  260,  261,  262,  263,  264,  265,  266,  267,  268,  269,  270,  271,  272
  273,  274,  275,  276,  277,  278,  279,  280,  281,  282,  283,  284,  285,  286,  287,  288
  289,  290,  291,  292,  293,  294,  295,  296,  297,  298,  299,  300,  301,  302,  303,  304
  305,  306,  307,  308,  309,  310,  311,  312,  313,  314,  315,  316,  317,  318,  319,  320
** ... 585 like lines cut
*Nset, nset=Set-inclusion
     1,     2,     3,     4,     5,    13,    14,    15,    20,    21,    22,    27,    30,    31,    32,    33
    42,    44,    45,    46,    47,    48,    97,    98,    99,   133,   134,   168,   183,   192,   193,   228
   229,   251,   252,   253,   276,   277,   291,   292,   293,   294,   295,   296,   297,   298,   411,   606
   681,   858,   859,   860,   936,   937,   938,   939,   940,   941,   942,   943,  1000,  1363,  1364,  1995
  1996,  1997,  2586,  2653,  2723,  2800,  2802,  2804,  2912,  2929,  2930,  2932,  2935,  2946,  2948,  2949
  3161,  3163,  3165,  3189,  3190,  3250,  3283,  3299,  3300,  3310,  3316,  3317,  3318,  3380,  3382,  3383
  3398,  3418,  3424,  3435,  3469,  3475,  3477,  3522,  3523,  3573,  3601,  3604,  3656,  3991,  3992,  3993
  4048,  4050,  4052,  4302,  4318,  4336,  4342,  4703,  4770,  4772,  4773,  5013,  5114,  5133,  5163,  5170
  5257,  5835,  5837,  5839,  6345,  6394,  6395,  6457,  6525,  6656,  6807,  6813,  6814,  6815,  6816,  6817
  6818,  6819,  6820,  6821,  6822,  6823,  6824,  6825,  6826,  6827,  6828,  6829,  6830,  6831,  6832,  6833
  6834,  6835,  6836,  6837,  6838,  6839,  6840,  6841,  6842,  6843,  6844,  6845,  6846,  6847,  6848,  6849
  6850,  6851,  6852,  6853,  6854,  6855,  6856,  6857,  6858,  6859,  6860,  6861,  6862,  6863,  6864,  7055
  7641,  7792,  7955,  7956,  8122,  8156,  8290,  8337,  8341,  8342,  8343,  8344,  8345,  8346,  8347,  8348
  8349,  9072,  9129,  9225,  9228,  9234,  9292,  9294,  9568,  9571,  9803,  9804,  9948,  9949, 10427, 10429
 10493, 10496, 10583, 10587, 10836, 11045, 11046, 11242, 11634, 11741, 11743, 11745, 11938, 11939, 12106, 12249
 12284, 12285, 12331, 12333, 12610, 12706, 12718, 12747, 12748, 12813, 12835, 12956, 12957, 12958, 12959, 12960
 12961, 12962, 12963, 12964, 12965, 13083, 13085, 13185, 13525, 13692, 13694, 13696, 13844, 13903, 13905, 13921
 13948, 13950, 13951, 13953, 13991, 13993, 13994, 14206, 14208, 14209, 14222, 14224, 14276, 14290, 14291, 14327
 14328, 14329, 14401, 14427, 14444, 14445, 14448, 14450, 14452, 14463, 14465, 14466, 14467, 14468, 14469, 14470
 14471, 14472, 14473, 14474, 14475, 14476, 14477, 14478, 14479, 14480, 14481, 14482, 14483, 14484, 14485, 14486
 14487, 14488, 14489, 14490, 14491, 14492, 14493, 14494, 14495, 14496, 14497, 14498, 14499, 14500, 14501, 14502
 14503, 14504, 14505, 14506, 14507, 14508, 14509, 14510, 14511, 14512, 14513, 14514, 14515, 14516
*Elset, elset=Set-inclusion
 3565, 3566, 3567, 3568, 3569, 3570, 3571, 3572, 3573, 3574, 3575, 3576, 3577, 3578, 3579, 3580
 3581, 3582, 3583, 3584, 3585, 3586, 3587, 3588, 3589, 3590, 3591, 3592, 3593, 3594, 3595, 3596
 3597, 3598, 3599, 3600, 3601, 3602, 3603, 3604, 3605, 3606, 3607, 3608, 3609, 3610, 3611, 3612
 3613, 3614, 3615, 3616, 3617, 3618, 3619, 3620, 3621, 3622, 3623, 3624, 3625, 4824, 4825, 4826
 4827, 4828, 4829, 4830, 4831, 4832, 8471, 8472, 8473, 8474, 8475, 8476, 8477, 8478, 8479, 8480
 8481, 8482, 8483, 8484, 8485, 8486, 8487, 8488, 8489, 8490, 9769, 9770, 9771, 9772, 9773, 9774
 9775, 9776, 9777, 9778, 9779, 9780, 9781, 9782, 9783, 9784, 9785, 9786, 9787, 9788, 9789, 9790
 9791, 9792, 9793, 9794, 9795, 9796, 9797, 9798, 9799, 9800, 9801, 9802, 9803, 9804, 9805, 9806
 9807, 9808, 9809, 9810, 9811, 9812, 9813, 9814, 9815, 9816, 9817, 9818, 9819, 9820, 9821, 9822
 9823, 9824, 9825, 9826, 9827, 9828, 9829, 9830, 9831, 9832, 9833, 9834, 9835, 9836, 9837, 9838
 9839, 9840, 9841, 9842, 9843
*Nset, nset=set-all-cells, generate
     1,  14516,      1
*Elset, elset=set-all-cells, generate
    1,  9843,     1
** Section: matrix
*Solid Section, elset=Set-matrix, material=matrix
,
** Section: inclusion
*Solid Section, elset=Set-inclusion, material=inclusion
,
*End Part
**  
**
** ASSEMBLY
**
*Assembly, name=Assembly
**  
*Instance, name=composite-1, part=composite
*End Instance
**  
*End Assembly
** 
** MATERIALS
** 
*Material, name=inclusion
*Elastic
10.,0.
*Material, name=matrix
*Elastic
1., 0.3
