*Heading
** Job name: sg2_iso_airfoil Model name: Model-1
** Generated by: Abaqus/CAE 2017
*Preprint, echo=NO, model=NO, history=NO, contact=NO
**
** PARTS
**
*Part, name=Part-1
*Node
      1,   4.67144966,  -10.2023315
      2,   6.09062433,  -9.70057678
      3,   7.03674078,  -9.36607456
      4,   7.98285723,  -9.03157234
      5,    8.9289732,  -8.69706917
      6,   10.3481483,  -8.19531536
      7,   11.2942648,  -7.86081266
      8,   12.2403812,  -7.52630997
      9,   13.1864977,  -7.19180727
     10,   14.6056719,  -6.69005346
     11,   15.5517883,  -6.35555077
     12,   16.4979038,  -6.02104807
     13,   17.4440212,  -5.68654537
     14,   18.8631954,  -5.18479109
     15,   19.8093128,  -4.85028839
     16,   20.7554283,  -4.51578617
     17,   21.7015457,  -4.18128347
     18,   23.1207199,  -3.67952919
     19,   24.0668354,  -3.34502673
     20,   25.0129528,  -3.01052403
** ... 975 like lines cut
*Element, type=CPS3
 1, 885, 830, 712
 2, 841, 539, 774
 3, 862, 784, 781
 4, 623, 540, 554
 5, 860, 839, 260
 6, 733, 827, 214
 7, 988, 557, 568
 8, 604, 644, 569
 9, 872, 583, 236
10, 638, 593, 592
11, 550, 993, 606
12, 631, 548, 641
13, 933, 705, 752
14, 930, 206, 914
15, 818, 806, 723
16, 962, 830, 963
17, 896, 865, 250
18, 947, 894, 680
19, 897, 724, 708
20, 663, 234, 553
** ... 4 like lines cut
*Element, type=CPS4R
 25, 161, 508, 672, 952
 26, 690, 195, 964, 194
 27, 889, 690, 194, 900
 28,  23, 297, 900, 194
 29, 510, 162, 678, 691
 30, 832, 808, 296, 295
 31, 692, 747, 164, 512
 32, 198, 926, 163, 511
 33, 162, 509, 732, 678
 34, 690, 952, 672, 195
 35, 689, 196, 833, 809
 36, 809, 195, 672, 689
 37, 965, 739, 920, 188
 38, 676, 679, 863, 189
 39, 157, 503, 190, 675
 40, 688, 924, 903, 190
 41, 501, 155, 674, 687
 42, 191, 951, 154, 499
 43, 760, 116, 432, 702
 44, 888, 760, 702, 980
** ... 736 like lines cut
*Nset, nset=Set-1, generate
   1,  995,    1
*Elset, elset=Set-1, generate
   1,  780,    1
** Section: Section-1
*Solid Section, elset=Set-1, material=Material-1
,
*End Part
**  
**
** ASSEMBLY
**
*Assembly, name=Assembly
**  
*Instance, name=Part-1-1, part=Part-1
*End Instance
**  
*End Assembly
** 
** MATERIALS
** 
*Material, name=Material-1
*Density
 1.06868e-06,
*Elastic
206843., 0.49
