*Heading
** Job name: sg2_airfoil_composite_section Model name: Model-1
** Generated by: Abaqus/CAE 2017
*Preprint, echo=NO, model=NO, history=NO, contact=NO
**
** PARTS
**
*Part, name=Part-1
*Node
      1,         -1.5, -0.00345800002
      2,  -1.49866796, -0.00351264002
      3,  -1.49727404, -0.00356988003
      4,  -1.49578404, -0.00363110006
      5,    -1.494192, -0.00369655993
      6,  -1.49249005, -0.00376653997
      7,  -1.49067199, -0.00384132005
      8,  -1.48872995, -0.0039212401
      9,  -1.48665798, -0.00400660001
     10,  -1.48444402, -0.00409776019
     11,  -1.48208594,  -0.00419496
     12,  -1.47963202, -0.00429604016
     13,  -1.47710598, -0.00440016016
     14,  -1.47450399, -0.0045074001
     15,  -1.47182202, -0.0046178801
     16,  -1.46906197, -0.00473164022
     17,  -1.46621799, -0.00484884018
     18,  -1.46328998, -0.00496954005
     19,  -1.46027195, -0.00509385997
     20,  -1.45716405, -0.00522183999
** ... 3889 like lines cut
*Element, type=CPS3
 1, 1489, 1033, 1032
 2, 1439,  301,    1
 3, 1228,  162,  163
 4, 1082, 1025, 1079
 5,    2, 1203,    1
 6, 1090,  957, 1056
 7, 1496, 1005, 1009
 8, 1575, 1466, 1467
 9, 1416, 1010, 1417
10, 1543, 1596, 1113
11, 1117, 1152, 1131
12, 1131, 1152, 1512
13,   45, 1169,   44
14, 1439,  300,  301
15, 1528, 1470, 1472
16, 1262,  377, 1261
17, 1432, 1455, 1430
18, 1203, 1439,    1
19, 1412, 1108, 1057
20, 1488, 1469, 1098
** ... 87 like lines cut
*Element, type=CPS4R
  35, 1032,  931, 1029,  934
  36,    4,  934, 1029,    3
  37, 1035, 1038, 1039, 1036
  38, 1039, 1038, 1040, 1041
  39, 1041, 1040, 1044, 1087
  40, 1045, 1044,  950,  954
  41, 1045,  954, 1047,  955
  42, 1048, 1047,  954,  956
  43,  959, 1051, 1048,  956
  44,  961, 1052, 1051,  959
  45,  965, 1054, 1052,  961
  46,  967, 1055, 1054,  965
  47,  969, 1059, 1055,  967
  48,  971, 1061, 1059,  969
  49,  975, 1062, 1061,  971
  50,  977, 1063, 1062,  975
  51,  979, 1064, 1063,  977
  52,  283,  978,  980,  282
  53,  981, 1065, 1064,  979
  54,  983, 1066, 1065,  981
** ... 3588 like lines cut
*Nset, nset=Set-1
   1,   2,   3,   4,   5,   6,   7,   8,   9,  10,  11,  12,  13,  14,  15,  16
  17,  18,  19,  20,  21,  22,  23,  24,  25,  26,  27,  28,  29,  30,  31,  32
  33,  34,  35,  36,  37,  38,  39,  40,  41,  42,  43,  44,  45,  46,  47,  48
  49,  50,  51,  52,  53,  54,  55,  56,  57,  58,  59,  60,  61,  62,  63,  64
  65,  66,  67,  68,  69,  70,  71,  72,  73,  74,  75,  76,  77,  78,  79,  80
  81,  82,  83,  84,  85,  86,  87,  88,  89,  90,  91,  92,  93,  94,  95,  96
  97,  98,  99, 100, 101, 102, 103, 104, 105, 106, 107, 108, 109, 110, 111, 112
 113, 114, 115, 116, 117, 118, 119, 120, 121, 122, 123, 124, 125, 126, 127, 128
 129, 130, 131, 132, 133, 134, 135, 136, 137, 138, 139, 140, 141, 142, 143, 144
 145, 146, 147, 148, 149, 150, 151, 152, 153, 154, 155, 156, 157, 158, 159, 160
 161, 162, 163, 164, 165, 166, 167, 168, 169, 170, 171, 172, 173, 174, 175, 176
 177, 178, 179, 180, 181, 182, 183, 184, 185, 186, 187, 188, 189, 190, 191, 192
 193, 194, 195, 196, 197, 198, 199, 200, 201, 202, 203, 204, 205, 206, 207, 208
 209, 210, 211, 212, 213, 214, 215, 216, 217, 218, 219, 220, 221, 222, 223, 224
 225, 226, 227, 228, 229, 230, 231, 232, 233, 234, 235, 236, 237, 238, 239, 240
 241, 242, 243, 244, 245, 246, 247, 248, 249, 250, 251, 252, 253, 254, 255, 256
 257, 258, 259, 260, 261, 262, 263, 264, 265, 266, 267, 268, 269, 270, 271, 272
 273, 274, 275, 276, 277, 278, 279, 280, 281, 282, 283, 284, 285, 286, 287, 288
 289, 290, 291, 292, 293, 294, 295, 296, 297, 298, 299, 300, 301, 540, 541, 542
 543, 544, 545, 546, 547, 548, 549, 550, 551, 552, 553, 554, 555, 556, 557, 558
** ... 11 like lines cut
*Elset, elset=Set-1
    2,    3,    5,   13,   14,   36,   52,   56,   57,   58,   59,   61,   62,   63,   64,   67
   69,   70,   71,   74,   75,   76,   78,   84,   85,   86,   87,   88,   89,   93,   94,   95
   96,   97,   98,   99,  100,  101,  102,  103,  104,  105,  106,  107,  108,  109,  110,  111
  112,  113,  114,  115,  116,  117,  118,  119,  120,  121,  122,  123,  124,  125,  126,  127
  128,  129,  130,  131,  132,  133,  134,  135,  136,  137,  138,  139,  140,  141,  142,  143
  144,  145,  146,  147,  148,  149,  150,  151,  152,  153,  154,  155,  156,  157,  158,  159
  160,  161,  162,  163,  164,  165,  166,  167,  168,  169,  170,  171,  172,  173,  174,  175
  176,  177,  178,  179,  180,  181,  182,  183,  184,  185,  186,  187,  188,  189,  190,  191
  192,  193,  194,  195,  196,  197,  198,  199,  200,  201,  202,  203,  204,  205,  206,  207
  208,  210,  212,  216,  217,  218,  219,  227,  228,  232,  238,  244,  245,  248,  250,  254
  256,  258,  259,  262,  263,  264,  266,  278,  280,  284,  286,  287,  292,  294,  296,  298
  300,  304,  305,  306,  308,  309,  310,  311,  312,  313,  315,  317,  318,  321,  322,  324
  326,  327,  331,  333,  335,  336,  340,  341,  342,  343,  344,  349,  355,  363,  366,  367
  370,  371,  374,  376,  377,  378,  379,  384,  385,  386,  387,  388,  390,  391,  392,  393
  394,  395,  396,  397,  398,  399,  400,  401,  402,  403,  404,  405,  406,  416,  417,  418
  419,  420,  421,  422,  423,  425,  426,  427,  428,  430,  432,  433,  434,  435,  436,  439
  441,  442,  444,  446,  448,  450,  452,  453,  454,  455,  458,  460,  461,  462,  464,  466
  467,  468,  469,  470,  471,  472,  473,  474,  475,  496,  497,  498,  499,  500,  501,  502
  503,  504,  505,  506,  507,  508,  509,  510,  511,  512,  513,  514,  515,  516,  517,  518
  519,  520,  521,  522,  523,  524,  525,  526,  527,  528,  529,  530,  531,  532,  533,  534
** ... 11 like lines cut
*Nset, nset=Set-3
  302,  303,  304,  305,  306,  307,  308,  309,  310,  311,  312,  313,  314,  315,  316,  317
  318,  319,  320,  321,  322,  323,  324,  325,  326,  327,  328,  329,  330,  331,  332,  333
  334,  335,  336,  337,  338,  339,  340,  341,  342,  343,  344,  345,  346,  347,  348,  349
  350,  351,  352,  353,  354,  355,  356,  357,  358,  359,  360,  361,  362,  363,  364,  365
  366,  367,  368,  369,  370,  371,  372,  373,  374,  375,  376,  377,  378,  379,  380,  381
  382,  383,  384,  385,  386,  387,  388,  389,  390,  391,  392,  393,  394,  395,  396,  397
  398,  399,  400,  401,  402,  403,  404,  405,  406,  407,  408,  409,  410,  411,  412,  413
  414,  415,  416,  417,  418,  419,  420,  421,  422,  423,  424,  425,  426,  427,  428,  429
  430,  431,  432,  433,  434,  435,  436,  437,  438,  439,  440,  441,  442,  443,  444,  445
  446,  447,  448,  449,  450,  451,  452,  453,  454,  455,  456,  457,  458,  459,  460,  461
  462,  463,  464,  465,  466,  467,  468,  469,  470,  471,  472,  473,  474,  475,  476,  477
  478,  479,  480,  481,  482,  483,  484,  485,  486,  487,  488,  489,  490,  491,  492,  493
  494,  495,  496,  497,  498,  499,  500,  501,  502,  503,  504,  505,  506,  507,  508,  509
  510,  511,  512,  513,  514,  515,  516,  517,  518,  519,  520,  521,  522,  523,  524,  525
  526,  527,  528,  529,  530,  531,  532,  533,  534,  535,  536,  537,  538,  539,  732,  733
  734,  735,  736,  737,  738,  739,  740,  741,  742,  743,  744,  745,  746,  747,  748,  749
  750,  751,  752,  753,  754,  755,  756,  757,  758,  759,  760,  761,  762,  763,  764,  765
  766,  767,  768,  769,  770,  771,  772,  773,  774,  775,  776,  777,  778,  779,  780,  781
  782,  783,  784,  785,  786,  787,  788,  789,  790,  791,  792,  793,  794,  795,  796,  797
  798,  799,  800,  801,  802,  803,  804,  805,  806,  807,  808,  809,  810,  811,  812,  813
** ... 149 like lines cut
*Elset, elset=Set-3, generate
 1197,  3715,     1
*Distribution, name=Ori-1-DiscOrient, location=ELEMENT, Table=Ori-1-DiscOrient_Table
** Description: Distribution generated from Discrete Orientation
,           1.,           0.,           0.,           0.,           1.,           0.
1, -0.999155759811401, 0.0410823449492455,           0., -0.0410823449492455, -0.999155759811401,           0.
2,           0.,           1.,           0.,          -1.,           0.,           0.
3, 0.103084534406662, -0.99467259645462,           0., 0.99467259645462, 0.103084534406662,           0.
4, 0.343795388936996, -0.939044594764709,           0., 0.939044594764709, 0.343795388936996,           0.
5, -0.999159753322601, 0.0409853234887123,           0., -0.0409853234887123, -0.999159753322601,           0.
6, 0.992508113384247, 0.122178599238396,           0., -0.122178599238396, 0.992508113384247,           0.
7, 0.0710744261741638, -0.997471034526825,           0., 0.997471034526825, 0.0710744261741638,           0.
8, -0.0747774392366409, -0.99720025062561,           0., 0.99720025062561, -0.0747774392366409,           0.
9, -0.112256273627281, -0.993679285049438,           0., 0.993679285049438, -0.112256273627281,           0.
10, 0.227915778756142, -0.973680853843689,           0., 0.973680853843689, 0.227915778756142,           0.
11, 0.992345094680786, 0.123495914041996,           0., -0.123495914041996, 0.992345094680786,           0.
12, 0.992568850517273, 0.121684178709984,           0., -0.121684178709984, 0.992568850517273,           0.
13, -0.99663257598877, 0.0819966718554497,           0., -0.0819966718554497, -0.99663257598877,           0.
14,           0.,           1.,           0.,          -1.,           0.,           0.
15, -0.0218023806810379, -0.999762296676636,           0., 0.999762296676636, -0.0218023806810379,           0.
16, 0.993474066257477, -0.114058434963226,           0., 0.114058434963226, 0.993474066257477,           0.
17, 0.0910758897662163, -0.995843946933746,           0., 0.995843946933746, 0.0910758897662163,           0.
18,           0.,           1.,           0.,          -1.,           0.,           0.
19, 0.992454349994659, 0.122614622116089,           0., -0.122614622116089, 0.992454349994659,           0.
20, 0.262803554534912, -0.964849352836609,           0., 0.964849352836609, 0.262803554534912,           0.
** ... 1176 like lines cut
*Orientation, name=Ori-1, system=RECTANGULAR
Ori-1-DiscOrient
3, 0.
** Region: (CompositeLayup-1-1: Generated From Layup)
*Elset, elset=CompositeLayup-1-1, generate
    1,  1196,     1
** Section: CompositeLayup-1-1
*Solid Section, elset=CompositeLayup-1-1, composite, orientation=Ori-1, stack direction=3, layup=CompositeLayup-1
1., 1, Material-1, 45., Ply-1
** Section: Section-1
*Solid Section, elset=Set-3, material=Material-2
,
*End Part
**  
**
** ASSEMBLY
**
*Assembly, name=Assembly
**  
*Instance, name=Part-1-1, part=Part-1
*End Instance
**  
*End Assembly
*Distribution Table, name=Ori-1-DiscOrient_Table
coord3D, coord3D
** 
** MATERIALS
** 
*Material, name=Material-1
*Density
1.,
*Elastic, type=ENGINEERING CONSTANTS
10.,  20.,  30., 0.12, 0.13, 0.23,  1.2,  1.3
  2.3,
*Material, name=Material-2
*Density
1.,
*Elastic
1.,0.
