*Heading
** Job name: sg2_box_composite_section_quad8 Model name: Model-1
** Generated by: Abaqus/CAE 2023
*Preprint, echo=NO, model=NO, history=NO, contact=NO
**
** PARTS
**
*Part, name=Part-1
*Node
      1,   21.1800003,   21.1800003
      2,          25.,          25.
      3,         -25.,          25.
      4,  -21.1800003,   21.1800003
      5,         -25.,         -25.
      6,  -21.1800003,  -21.1800003
      7,          20.,          20.
      8,         -20.,          20.
      9,   21.1800003,  -21.1800003
     10,          25.,         -25.
     11,         -20.,         -20.
     12,          20.,         -20.
     13,   19.4444447,          25.
     14,   13.8888893,          25.
     15,   8.33333302,          25.
     16,   2.77777767,          25.
     17,  -2.77777767,          25.
     18,  -8.33333302,          25.
     19,  -13.8888893,          25.
     20,  -19.4444447,          25.
** ... 268 like lines cut
*Element, type=CPS8R
 1,   1,   2,  13,  28, 109, 110, 111, 112
 2,  28,  13,  14,  27, 111, 113, 114, 115
 3,  27,  14,  15,  26, 114, 116, 117, 118
 4,  26,  15,  16,  25, 117, 119, 120, 121
 5,  25,  16,  17,  24, 120, 122, 123, 124
 6,  24,  17,  18,  23, 123, 125, 126, 127
 7,  23,  18,  19,  22, 126, 128, 129, 130
 8,  22,  19,  20,  21, 129, 131, 132, 133
 9,  21,  20,   3,   4, 132, 134, 135, 136
10,   5,   6,  29,  44, 137, 138, 139, 140
11,  44,  29,  30,  43, 139, 141, 142, 143
12,  43,  30,  31,  42, 142, 144, 145, 146
13,  42,  31,  32,  41, 145, 147, 148, 149
14,  41,  32,  33,  40, 148, 150, 151, 152
15,  40,  33,  34,  39, 151, 153, 154, 155
16,  39,  34,  35,  38, 154, 156, 157, 158
17,  38,  35,  36,  37, 157, 159, 160, 161
18,  37,  36,   4,   3, 160, 162, 135, 163
19,   7,   1,  28,  52, 164, 112, 165, 166
20,  52,  28,  27,  51, 165, 115, 167, 168
** ... 52 like lines cut
*Nset, nset=Set-1
   2,   3,   5,  10,  13,  14,  15,  16,  17,  18,  19,  20,  37,  38,  39,  40
  41,  42,  43,  44,  53,  54,  55,  56,  57,  58,  59,  60,  69,  70,  71,  72
  73,  74,  75,  76, 110, 113, 116, 119, 122, 125, 128, 131, 134, 140, 143, 146
 149, 152, 155, 158, 161, 163, 184, 187, 190, 193, 196, 199, 202, 205, 208, 210
 213, 216, 219, 222, 225, 228, 231, 234
*Elset, elset=Set-1
  1,  2,  3,  4,  5,  6,  7,  8,  9, 10, 11, 12, 13, 14, 15, 16
 17, 18, 28, 29, 30, 31, 32, 33, 34, 35, 36, 37, 38, 39, 40, 41
 42, 43, 44, 45
*Nset, nset=Set-3
   7,   8,  11,  12,  45,  46,  47,  48,  49,  50,  51,  52,  85,  86,  87,  88
  89,  90,  91,  92,  93,  94,  95,  96,  97,  98,  99, 100, 101, 102, 103, 104
 105, 106, 107, 108, 166, 168, 170, 172, 174, 176, 178, 180, 182, 237, 239, 241
 243, 245, 247, 249, 251, 253, 256, 258, 260, 262, 264, 266, 268, 270, 271, 272
 274, 276, 278, 280, 282, 284, 286, 288
*Elset, elset=Set-3
 19, 20, 21, 22, 23, 24, 25, 26, 27, 46, 47, 48, 49, 50, 51, 52
 53, 54, 55, 56, 57, 58, 59, 60, 61, 62, 63, 64, 65, 66, 67, 68
 69, 70, 71, 72
*Distribution, name=Ori-1-DiscOrient, location=ELEMENT, Table=Ori-1-DiscOrient_Table
** Description: Distribution generated from Discrete Orientation
,           1.,           0.,           0.,           0.,           1.,           0.
1,           1.,           0.,           0.,           0.,           1.,           0.
2,           1.,           0.,           0.,           0.,           1.,           0.
3,           1.,           0.,           0.,           0.,           1.,           0.
4,           1.,           0.,           0.,           0.,           1.,           0.
5,           1.,           0.,           0.,           0.,           1.,           0.
6,           1.,           0.,           0.,           0.,           1.,           0.
7,           1.,           0.,           0.,           0.,           1.,           0.
8,           1.,           0.,           0.,           0.,           1.,           0.
9,           1.,           0.,           0.,           0.,           1.,           0.
10,           0.,           1.,           0.,          -1.,           0.,           0.
11,           0.,           1.,           0.,          -1.,           0.,           0.
12,           0.,           1.,           0.,          -1.,           0.,           0.
13,           0.,           1.,           0.,          -1.,           0.,           0.
14,           0.,           1.,           0.,          -1.,           0.,           0.
15,           0.,           1.,           0.,          -1.,           0.,           0.
16,           0.,           1.,           0.,          -1.,           0.,           0.
17,           0.,           1.,           0.,          -1.,           0.,           0.
18,           0.,           1.,           0.,          -1.,           0.,           0.
28,           0.,          -1.,           0.,           1.,           0.,           0.
29,           0.,          -1.,           0.,           1.,           0.,           0.
** ... 16 like lines cut
*Distribution, name=Ori-2-DiscOrient, location=ELEMENT, Table=Ori-2-DiscOrient_Table
** Description: Distribution generated from Discrete Orientation
,           1.,           0.,           0.,           0.,           1.,           0.
19,           1.,           0.,           0.,           0.,           1.,           0.
20,           1.,           0.,           0.,           0.,           1.,           0.
21,           1.,           0.,           0.,           0.,           1.,           0.
22,           1.,           0.,           0.,           0.,           1.,           0.
23,           1.,           0.,           0.,           0.,           1.,           0.
24,           1.,           0.,           0.,           0.,           1.,           0.
25,           1.,           0.,           0.,           0.,           1.,           0.
26,           1.,           0.,           0.,           0.,           1.,           0.
27,           1.,           0.,           0.,           0.,           1.,           0.
46,           0.,           1.,           0.,          -1.,           0.,           0.
47,           0.,           1.,           0.,          -1.,           0.,           0.
48,           0.,           1.,           0.,          -1.,           0.,           0.
49,           0.,           1.,           0.,          -1.,           0.,           0.
50,           0.,           1.,           0.,          -1.,           0.,           0.
51,           0.,           1.,           0.,          -1.,           0.,           0.
52,           0.,           1.,           0.,          -1.,           0.,           0.
53,           0.,           1.,           0.,          -1.,           0.,           0.
54,           0.,           1.,           0.,          -1.,           0.,           0.
55,           0.,          -1.,           0.,           1.,           0.,           0.
56,           0.,          -1.,           0.,           1.,           0.,           0.
** ... 16 like lines cut
*Orientation, name=Ori-1, system=RECTANGULAR
Ori-1-DiscOrient
3, 0.
** Region: (CompositeLayup-1-1: Generated From Layup)
*Elset, elset=CompositeLayup-1-1
  1,  2,  3,  4,  5,  6,  7,  8,  9, 10, 11, 12, 13, 14, 15, 16
 17, 18, 28, 29, 30, 31, 32, 33, 34, 35, 36, 37, 38, 39, 40, 41
 42, 43, 44, 45
** Section: CompositeLayup-1-1
*Solid Section, elset=CompositeLayup-1-1, composite, orientation=Ori-1, stack direction=3, layup=CompositeLayup-1
1., 1, Material-1, 0., Ply-1
*Orientation, name=Ori-2, system=RECTANGULAR
Ori-2-DiscOrient
3, 0.
** Region: (CompositeLayup-2-1: Generated From Layup)
*Elset, elset=CompositeLayup-2-1
 19, 20, 21, 22, 23, 24, 25, 26, 27, 46, 47, 48, 49, 50, 51, 52
 53, 54, 55, 56, 57, 58, 59, 60, 61, 62, 63, 64, 65, 66, 67, 68
 69, 70, 71, 72
** Section: CompositeLayup-2-1
*Solid Section, elset=CompositeLayup-2-1, composite, orientation=Ori-2, stack direction=3, layup=CompositeLayup-2
1., 1, Material-1, 45., Ply-1
*End Part
**  
**
** ASSEMBLY
**
*Assembly, name=Assembly
**  
*Instance, name=Part-1-1, part=Part-1
*End Instance
**  
*End Assembly
*Distribution Table, name=Ori-1-DiscOrient_Table
coord3D, coord3D
*Distribution Table, name=Ori-2-DiscOrient_Table
coord3D, coord3D
** 
** MATERIALS
** 
*Material, name=Material-1
*Density
1.,
*Elastic, type=ENGINEERING CONSTANTS
10.,  20.,  30., 0.12, 0.13, 0.23,  1.2,  1.3
  2.3,
