*Heading
** Job name: rve_inclusion_cylinder_01 Model name: Model-1
** Generated by: Abaqus/CAE 2017
*Preprint, echo=NO, model=NO, history=NO, contact=NO
**
** PARTS
**
*Part, name=composite
*Node
      1, -0.0133974599, -0.223205075, -0.346410155
      2,  0.186602548,  0.123205081,  0.346410155
      3,         -0.5,         -0.5,          0.5
      4,         -0.5,          0.5,          0.5
      5,         -0.5,          0.5,         -0.5
      6,         -0.5,         -0.5,         -0.5
      7,          0.5,          0.5,          0.5
      8,          0.5,          0.5,         -0.5
      9,          0.5,         -0.5,         -0.5
     10,          0.5,         -0.5,          0.5
     11, -0.0941987261,  -0.26315698, -0.303108901
     12, -0.180801272, -0.213156983, -0.303108901
     13, -0.186602548, -0.123205081, -0.346410155
     14, -0.105801269, -0.083253175,  -0.38971144
     15, -0.0191987306, -0.133253172,  -0.38971144
     16, 0.0116025405, -0.179903805, -0.259807616
     17, 0.0366025418, -0.136602536, -0.173205078
     18, 0.0616025403, -0.0933012739, -0.0866025388
     19, 0.0866025388, -0.0500000007,           0.
     20,  0.111602537, -0.00669872994, 0.0866025388
** ... 10534 like lines cut
*Element, type=C3D10
  1,  659,  163,  660,  661, 1488, 1487, 1486, 1490, 1489, 1491
  2,  158,  163,  159,  659, 1494, 1493, 1492, 1495, 1488, 1496
  3,  659,  660,  662,  661, 1486, 1498, 1497, 1490, 1491, 1499
  4,  659,  158,  663,  159, 1495, 1501, 1500, 1496, 1492, 1502
  5,  151,  664,  156,   18, 1505, 1504, 1503, 1507, 1506, 1508
  6,  659,  159,  663,  160, 1496, 1502, 1500, 1510, 1509, 1511
  7,  659,  165,  660,  160, 1513, 1512, 1486, 1510, 1514, 1515
  8,  165,  659,  662,  166, 1513, 1497, 1516, 1518, 1517, 1519
  9,  665,   16,    1,   15, 1522, 1521, 1520, 1524, 1523, 1525
 10,  665,   14,  137,   15, 1528, 1527, 1526, 1524, 1529, 1530
 11,  665,  136,    1,   11, 1532, 1531, 1520, 1534, 1533, 1535
 12,  665,   13,  138,   14, 1538, 1537, 1536, 1528, 1539, 1540
 13,  665,   11,  140,   12, 1534, 1542, 1541, 1544, 1543, 1545
 14,  665,  139,   13,   12, 1547, 1546, 1538, 1544, 1548, 1549
 15,  661,  171,  170,  662, 1552, 1551, 1550, 1499, 1553, 1554
 16,  666,  156,   18,  667, 1556, 1508, 1555, 1558, 1557, 1559
 17,  666,  156,  667,  155, 1556, 1557, 1558, 1561, 1560, 1562
 18,   18,  664,  668,  151, 1506, 1564, 1563, 1507, 1505, 1565
 19,  666,  148,  153,  152, 1568, 1567, 1566, 1570, 1569, 1571
 20,  153,  667,  158,  154, 1574, 1573, 1572, 1576, 1575, 1577
** ... 6965 like lines cut
*Nset, nset=Set-matrix
     1,     2,     3,     4,     5,     6,     7,     8,     9,    10,    11,    12,    13,    14,    15,    16
    17,    18,    19,    20,    21,    22,    23,    24,    25,    26,    27,    28,    29,    30,    31,    32
    33,    34,    35,    36,    37,    38,    39,    40,    41,    42,    43,    44,    45,    46,    47,    48
    49,    50,    51,    52,    53,    54,    55,    56,    57,    58,    59,    60,    61,    62,    63,    64
    65,    66,    67,    68,    69,    70,    71,    72,    73,    74,    75,    76,    77,    78,    79,    80
    81,    82,    83,    84,    85,    86,    87,    88,    89,    90,    91,    92,    93,    94,    95,    96
    97,    98,    99,   100,   101,   102,   103,   104,   105,   106,   107,   108,   109,   110,   111,   112
   113,   114,   115,   116,   117,   118,   119,   120,   121,   122,   123,   124,   125,   126,   127,   128
   129,   130,   131,   132,   133,   134,   135,   136,   137,   138,   139,   140,   141,   142,   143,   144
   145,   146,   147,   148,   149,   150,   151,   152,   153,   154,   155,   156,   157,   158,   159,   160
   161,   162,   163,   164,   165,   166,   167,   168,   169,   170,   171,   172,   173,   174,   175,   176
   177,   178,   179,   180,   181,   182,   183,   184,   185,   186,   187,   188,   189,   190,   191,   192
   193,   194,   195,   196,   197,   198,   199,   200,   201,   202,   203,   204,   205,   206,   207,   208
   209,   210,   211,   212,   213,   214,   215,   216,   217,   218,   219,   220,   221,   222,   223,   224
   225,   226,   227,   228,   229,   230,   231,   232,   233,   234,   235,   236,   237,   238,   239,   240
   241,   242,   243,   244,   245,   246,   247,   248,   249,   250,   251,   252,   253,   254,   255,   256
   257,   258,   259,   260,   261,   262,   263,   264,   265,   266,   267,   268,   269,   270,   271,   272
   273,   274,   275,   276,   277,   278,   279,   280,   281,   282,   283,   284,   285,   286,   287,   288
   289,   290,   291,   292,   293,   294,   295,   296,   297,   298,   299,   300,   301,   302,   303,   304
   305,   306,   307,   308,   309,   310,   311,   312,   313,   314,   315,   316,   317,   318,   319,   320
** ... 631 like lines cut
*Elset, elset=Set-matrix, generate
  172,  6985,     1
*Nset, nset=Set-inclusion
    1,    2,   11,   12,   13,   14,   15,   16,   17,   18,   19,   20,   21,   22,   23,   24
   25,   26,   27,  136,  137,  138,  139,  140,  141,  142,  143,  144,  145,  146,  147,  148
  149,  150,  151,  152,  153,  154,  155,  156,  157,  158,  159,  160,  161,  162,  163,  164
  165,  166,  167,  168,  169,  170,  171,  172,  659,  660,  661,  662,  663,  664,  665,  666
  667,  668,  669, 1486, 1487, 1488, 1489, 1490, 1491, 1492, 1493, 1494, 1495, 1496, 1497, 1498
 1499, 1500, 1501, 1502, 1503, 1504, 1505, 1506, 1507, 1508, 1509, 1510, 1511, 1512, 1513, 1514
 1515, 1516, 1517, 1518, 1519, 1520, 1521, 1522, 1523, 1524, 1525, 1526, 1527, 1528, 1529, 1530
 1531, 1532, 1533, 1534, 1535, 1536, 1537, 1538, 1539, 1540, 1541, 1542, 1543, 1544, 1545, 1546
 1547, 1548, 1549, 1550, 1551, 1552, 1553, 1554, 1555, 1556, 1557, 1558, 1559, 1560, 1561, 1562
 1563, 1564, 1565, 1566, 1567, 1568, 1569, 1570, 1571, 1572, 1573, 1574, 1575, 1576, 1577, 1578
 1579, 1580, 1581, 1582, 1583, 1584, 1585, 1586, 1587, 1588, 1589, 1590, 1591, 1592, 1593, 1594
 1595, 1596, 1597, 1598, 1599, 1600, 1601, 1602, 1603, 1604, 1605, 1606, 1607, 1608, 1609, 1610
 1611, 1612, 1613, 1614, 1615, 1616, 1617, 1618, 1619, 1620, 1621, 1622, 1623, 1624, 1625, 1626
 1627, 1628, 1629, 1630, 1631, 1632, 1633, 1634, 1635, 1636, 1637, 1638, 1639, 1640, 1641, 1642
 1643, 1644, 1645, 1646, 1647, 1648, 1649, 1650, 1651, 1652, 1653, 1654, 1655, 1656, 1657, 1658
 1659, 1660, 1661, 1662, 1663, 1664, 1665, 1666, 1667, 1668, 1669, 1670, 1671, 1672, 1673, 1674
 1675, 1676, 1677, 1678, 1679, 1680, 1681, 1682, 1683, 1684, 1685, 1686, 1687, 1688, 1689, 1690
 1691, 1692, 1693, 1694, 1695, 1696, 1697, 1698, 1699, 1700, 1701, 1702, 1703, 1704, 1705, 1706
 1707, 1708, 1709, 1710, 1711, 1712, 1713, 1714, 1715, 1716, 1717, 1718, 1719, 1720, 1721, 1722
 1723, 1724, 1725, 1726, 1727, 1728, 1729, 1730, 1731, 1732, 1733, 1734, 1735, 1736, 1737, 1738
 1739, 1740, 1741, 1742, 1743, 1744, 1745, 1746, 1747, 1748, 1749, 1750, 1751, 1752, 1753, 1754
 1755, 1756, 1757, 1758, 1759, 1760, 1761, 1762, 1763, 1764, 1765, 1766, 1767, 1768, 1769, 1770
 1771, 1772, 1773, 1774, 1775, 1776
*Elset, elset=Set-inclusion, generate
   1,  171,    1
*Nset, nset=set-all-cells, generate
     1,  10554,      1
*Elset, elset=set-all-cells, generate
    1,  6985,     1
** Section: inclusion
*Solid Section, elset=Set-inclusion, material=inclusion
,
** Section: matrix
*Solid Section, elset=Set-matrix, material=matrix
,
*End Part
**  
**
** ASSEMBLY
**
*Assembly, name=Assembly
**  
*Instance, name=composite-1, part=composite
*End Instance
**  
*End Assembly
** 
** MATERIALS
** 
*Material, name=inclusion
*Elastic
10.,0.
*Material, name=matrix
*Elastic
1., 0.3
