*Heading
File generated by TexGen v3.13.1
************
*** MESH ***
************
*Node
1, -0.5, -0.5, -0.01
2, -0.4375, -0.5, -0.01
3, -0.375, -0.5, -0.01
4, -0.3125, -0.5, -0.01
5, -0.25, -0.5, -0.01
6, -0.1875, -0.5, -0.01
7, -0.125, -0.5, -0.01
8, -0.0625, -0.5, -0.01
9, 0, -0.5, -0.01
10, 0.0625, -0.5, -0.01
11, 0.125, -0.5, -0.01
12, 0.1875, -0.5, -0.01
13, 0.25, -0.5, -0.01
14, 0.3125, -0.5, -0.01
15, 0.375, -0.5, -0.01
16, 0.4375, -0.5, -0.01
17, 0.5, -0.5, -0.01
18, 0.5625, -0.5, -0.01
19, 0.625, -0.5, -0.01
20, 0.6875, -0.5, -0.01
** ... 9781 like lines cut
*Element, Type=C3D8R
1, 2, 35, 34, 1, 1091, 1124, 1123, 1090
2, 3, 36, 35, 2, 1092, 1125, 1124, 1091
3, 4, 37, 36, 3, 1093, 1126, 1125, 1092
4, 5, 38, 37, 4, 1094, 1127, 1126, 1093
5, 6, 39, 38, 5, 1095, 1128, 1127, 1094
6, 7, 40, 39, 6, 1096, 1129, 1128, 1095
7, 8, 41, 40, 7, 1097, 1130, 1129, 1096
8, 9, 42, 41, 8, 1098, 1131, 1130, 1097
9, 10, 43, 42, 9, 1099, 1132, 1131, 1098
10, 11, 44, 43, 10, 1100, 1133, 1132, 1099
11, 12, 45, 44, 11, 1101, 1134, 1133, 1100
12, 13, 46, 45, 12, 1102, 1135, 1134, 1101
13, 14, 47, 46, 13, 1103, 1136, 1135, 1102
14, 15, 48, 47, 14, 1104, 1137, 1136, 1103
15, 16, 49, 48, 15, 1105, 1138, 1137, 1104
16, 17, 50, 49, 16, 1106, 1139, 1138, 1105
17, 18, 51, 50, 17, 1107, 1140, 1139, 1106
18, 19, 52, 51, 18, 1108, 1141, 1140, 1107
19, 20, 53, 52, 19, 1109, 1142, 1141, 1108
20, 21, 54, 53, 20, 1110, 1143, 1142, 1109
** ... 8172 like lines cut
********************
*** ORIENTATIONS ***
********************
** Orientation vectors
** 1st vector represents the fibre direction
** 2nd vector is an arbitrary vector perpendicular to the first
*Distribution Table, Name=TexGenOrientationVectors
COORD3D,COORD3D
*Distribution, Location=Element, Table=TexGenOrientationVectors, Name=TexGenOrientationVectors, Input=plain_weave_3d.ori
*Orientation, Name=TexGenOrientations, Definition=coordinates
TexGenOrientationVectors
1, 0
********************
*** ELEMENT SETS ***
********************
** TexGen generates a number of element sets:
** All - Contains all elements
** Matrix - Contains all elements belonging to the matrix
** YarnX - Where X represents the yarn index
*ElSet, ElSet=AllElements, Generate
1, 8192, 1
*ElSet, ElSet=Matrix
1, 2, 3, 4, 5, 6, 7, 8, 9, 10, 11, 12, 13, 14, 15, 16
17, 18, 19, 20, 21, 22, 23, 24, 25, 26, 27, 28, 29, 30, 31, 32
33, 34, 35, 36, 37, 38, 39, 40, 41, 42, 43, 44, 45, 46, 47, 48
49, 50, 51, 52, 53, 54, 55, 56, 57, 58, 59, 60, 61, 62, 63, 64
65, 66, 67, 68, 69, 70, 71, 72, 73, 74, 75, 76, 77, 78, 79, 80
81, 82, 83, 84, 85, 86, 87, 88, 89, 90, 91, 92, 93, 94, 95, 96
97, 98, 99, 100, 101, 102, 103, 104, 105, 106, 107, 108, 109, 110, 111, 112
113, 114, 115, 116, 117, 118, 119, 120, 121, 122, 123, 124, 125, 126, 127, 128
129, 130, 131, 132, 133, 134, 135, 136, 137, 138, 139, 140, 141, 142, 143, 144
145, 146, 147, 148, 149, 150, 151, 152, 153, 154, 155, 156, 157, 158, 159, 160
161, 162, 163, 164, 165, 166, 167, 168, 169, 170, 171, 172, 173, 174, 175, 176
177, 178, 179, 180, 181, 182, 183, 184, 185, 186, 187, 188, 189, 190, 191, 192
193, 194, 195, 196, 197, 198, 199, 202, 203, 204, 205, 206, 207, 208, 209, 210
211, 212, 213, 214, 215, 218, 219, 220, 221, 222, 223, 224, 225, 226, 227, 228
229, 230, 235, 236, 237, 238, 239, 240, 241, 242, 243, 244, 245, 246, 251, 252
253, 254, 255, 256, 257, 258, 259, 260, 261, 262, 267, 268, 269, 270, 271, 272
273, 274, 275, 276, 277, 278, 283, 284, 285, 286, 287, 288, 289, 290, 291, 292
293, 294, 295, 298, 299, 300, 301, 302, 303, 304, 305, 306, 307, 308, 309, 310
311, 314, 315, 316, 317, 318, 319, 320, 321, 322, 323, 324, 325, 326, 327, 328
329, 330, 331, 332, 333, 334, 335, 336, 337, 338, 339, 340, 341, 342, 343, 344
** ... 212 like lines cut
*ElSet, ElSet=Yarn0
200, 201, 231, 232, 233, 234, 263, 264, 265, 266, 296, 297, 1094, 1095, 1096, 1097
1098, 1099, 1125, 1126, 1127, 1128, 1129, 1130, 1131, 1132, 1156, 1157, 1158, 1159, 1160, 1161
1162, 1163, 1164, 1165, 1187, 1188, 1189, 1190, 1191, 1192, 1193, 1194, 1195, 1196, 1197, 1198
1219, 1220, 1221, 1222, 1223, 1224, 1225, 1226, 1227, 1228, 1229, 1230, 1251, 1252, 1253, 1254
1255, 1256, 1257, 1258, 1259, 1260, 1261, 1262, 1283, 1284, 1285, 1286, 1287, 1288, 1289, 1290
1291, 1292, 1293, 1294, 1315, 1316, 1317, 1318, 1319, 1320, 1321, 1322, 1323, 1324, 1325, 1326
1347, 1348, 1349, 1350, 1351, 1352, 1353, 1354, 1355, 1356, 1357, 1358, 1380, 1381, 1382, 1383
1384, 1385, 1386, 1387, 1388, 1389, 1413, 1414, 1415, 1416, 1417, 1418, 1419, 1420, 1446, 1447
1448, 1449, 1450, 1451, 2115, 2116, 2117, 2118, 2119, 2120, 2121, 2122, 2123, 2124, 2125, 2126
2146, 2147, 2148, 2149, 2150, 2151, 2152, 2153, 2154, 2155, 2156, 2157, 2158, 2159, 2177, 2178
2179, 2180, 2181, 2182, 2183, 2184, 2185, 2186, 2187, 2188, 2189, 2190, 2191, 2192, 2209, 2210
2211, 2212, 2213, 2214, 2215, 2216, 2217, 2218, 2219, 2220, 2221, 2222, 2223, 2224, 2225, 2240
2241, 2242, 2243, 2244, 2245, 2246, 2247, 2248, 2249, 2250, 2251, 2252, 2253, 2254, 2255, 2256
2257, 2272, 2273, 2274, 2275, 2276, 2277, 2278, 2279, 2280, 2281, 2282, 2283, 2284, 2285, 2286
2287, 2288, 2289, 2304, 2305, 2306, 2307, 2308, 2309, 2310, 2311, 2312, 2313, 2314, 2315, 2316
2317, 2318, 2319, 2320, 2321, 2336, 2337, 2338, 2339, 2340, 2341, 2342, 2343, 2344, 2345, 2346
2347, 2348, 2349, 2350, 2351, 2352, 2353, 2368, 2369, 2370, 2371, 2372, 2373, 2374, 2375, 2376
2377, 2378, 2379, 2380, 2381, 2382, 2383, 2384, 2385, 2400, 2401, 2402, 2403, 2404, 2405, 2406
2407, 2408, 2409, 2410, 2411, 2412, 2413, 2414, 2415, 2416, 2434, 2435, 2436, 2437, 2438, 2439
2440, 2441, 2442, 2443, 2444, 2445, 2446, 2447, 2467, 2468, 2469, 2470, 2471, 2472, 2473, 2474
** ... 50 like lines cut
*ElSet, ElSet=Yarn1
728, 729, 759, 760, 761, 762, 791, 792, 793, 794, 824, 825, 1622, 1623, 1624, 1625
1626, 1627, 1653, 1654, 1655, 1656, 1657, 1658, 1659, 1660, 1684, 1685, 1686, 1687, 1688, 1689
1690, 1691, 1692, 1693, 1715, 1716, 1717, 1718, 1719, 1720, 1721, 1722, 1723, 1724, 1725, 1726
1747, 1748, 1749, 1750, 1751, 1752, 1753, 1754, 1755, 1756, 1757, 1758, 1779, 1780, 1781, 1782
1783, 1784, 1785, 1786, 1787, 1788, 1789, 1790, 1811, 1812, 1813, 1814, 1815, 1816, 1817, 1818
1819, 1820, 1821, 1822, 1843, 1844, 1845, 1846, 1847, 1848, 1849, 1850, 1851, 1852, 1853, 1854
1875, 1876, 1877, 1878, 1879, 1880, 1881, 1882, 1883, 1884, 1885, 1886, 1908, 1909, 1910, 1911
1912, 1913, 1914, 1915, 1916, 1917, 1941, 1942, 1943, 1944, 1945, 1946, 1947, 1948, 1974, 1975
1976, 1977, 1978, 1979, 2643, 2644, 2645, 2646, 2647, 2648, 2649, 2650, 2651, 2652, 2653, 2654
2674, 2675, 2676, 2677, 2678, 2679, 2680, 2681, 2682, 2683, 2684, 2685, 2686, 2687, 2705, 2706
2707, 2708, 2709, 2710, 2711, 2712, 2713, 2714, 2715, 2716, 2717, 2718, 2719, 2720, 2721, 2736
2737, 2738, 2739, 2740, 2741, 2742, 2743, 2744, 2745, 2746, 2747, 2748, 2749, 2750, 2751, 2752
2753, 2768, 2769, 2770, 2771, 2772, 2773, 2774, 2775, 2776, 2777, 2778, 2779, 2780, 2781, 2782
2783, 2784, 2785, 2800, 2801, 2802, 2803, 2804, 2805, 2806, 2807, 2808, 2809, 2810, 2811, 2812
2813, 2814, 2815, 2816, 2817, 2832, 2833, 2834, 2835, 2836, 2837, 2838, 2839, 2840, 2841, 2842
2843, 2844, 2845, 2846, 2847, 2848, 2849, 2864, 2865, 2866, 2867, 2868, 2869, 2870, 2871, 2872
2873, 2874, 2875, 2876, 2877, 2878, 2879, 2880, 2881, 2896, 2897, 2898, 2899, 2900, 2901, 2902
2903, 2904, 2905, 2906, 2907, 2908, 2909, 2910, 2911, 2912, 2929, 2930, 2931, 2932, 2933, 2934
2935, 2936, 2937, 2938, 2939, 2940, 2941, 2942, 2943, 2944, 2962, 2963, 2964, 2965, 2966, 2967
2968, 2969, 2970, 2971, 2972, 2973, 2974, 2975, 2995, 2996, 2997, 2998, 2999, 3000, 3001, 3002
** ... 50 like lines cut
*ElSet, ElSet=Yarn2
712, 713, 743, 744, 745, 746, 775, 776, 777, 778, 808, 809, 1606, 1607, 1608, 1609
1610, 1611, 1637, 1638, 1639, 1640, 1641, 1642, 1643, 1644, 1668, 1669, 1670, 1671, 1672, 1673
1674, 1675, 1676, 1677, 1699, 1700, 1701, 1702, 1703, 1704, 1705, 1706, 1707, 1708, 1709, 1710
1731, 1732, 1733, 1734, 1735, 1736, 1737, 1738, 1739, 1740, 1741, 1742, 1763, 1764, 1765, 1766
1767, 1768, 1769, 1770, 1771, 1772, 1773, 1774, 1795, 1796, 1797, 1798, 1799, 1800, 1801, 1802
1803, 1804, 1805, 1806, 1827, 1828, 1829, 1830, 1831, 1832, 1833, 1834, 1835, 1836, 1837, 1838
1859, 1860, 1861, 1862, 1863, 1864, 1865, 1866, 1867, 1868, 1869, 1870, 1892, 1893, 1894, 1895
1896, 1897, 1898, 1899, 1900, 1901, 1925, 1926, 1927, 1928, 1929, 1930, 1931, 1932, 1958, 1959
1960, 1961, 1962, 1963, 2054, 2055, 2056, 2057, 2058, 2059, 2534, 2535, 2536, 2537, 2538, 2539
2565, 2566, 2567, 2568, 2569, 2570, 2571, 2572, 2596, 2597, 2598, 2599, 2600, 2601, 2602, 2603
2604, 2605, 2627, 2628, 2629, 2630, 2631, 2632, 2633, 2634, 2635, 2636, 2637, 2638, 2659, 2660
2661, 2662, 2663, 2664, 2665, 2666, 2667, 2668, 2669, 2670, 2691, 2692, 2693, 2694, 2695, 2696
2697, 2698, 2699, 2700, 2701, 2702, 2723, 2724, 2725, 2726, 2727, 2728, 2729, 2730, 2731, 2732
2733, 2734, 2755, 2756, 2757, 2758, 2759, 2760, 2761, 2762, 2763, 2764, 2765, 2766, 2787, 2788
2789, 2790, 2791, 2792, 2793, 2794, 2795, 2796, 2797, 2798, 2819, 2820, 2821, 2822, 2823, 2824
2825, 2826, 2827, 2828, 2829, 2830, 2851, 2852, 2853, 2854, 2855, 2856, 2857, 2858, 2859, 2860
2861, 2862, 2883, 2884, 2885, 2886, 2887, 2888, 2889, 2890, 2891, 2892, 2893, 2894, 2915, 2916
2917, 2918, 2919, 2920, 2921, 2922, 2923, 2924, 2925, 2926, 2947, 2948, 2949, 2950, 2951, 2952
2953, 2954, 2955, 2956, 2957, 2958, 2979, 2980, 2981, 2982, 2983, 2984, 2985, 2986, 2987, 2988
2989, 2990, 3012, 3013, 3014, 3015, 3016, 3017, 3018, 3019, 3020, 3021, 3045, 3046, 3047, 3048
** ... 50 like lines cut
*ElSet, ElSet=Yarn3
216, 217, 247, 248, 249, 250, 279, 280, 281, 282, 312, 313, 1110, 1111, 1112, 1113
1114, 1115, 1141, 1142, 1143, 1144, 1145, 1146, 1147, 1148, 1172, 1173, 1174, 1175, 1176, 1177
1178, 1179, 1180, 1181, 1203, 1204, 1205, 1206, 1207, 1208, 1209, 1210, 1211, 1212, 1213, 1214
1235, 1236, 1237, 1238, 1239, 1240, 1241, 1242, 1243, 1244, 1245, 1246, 1267, 1268, 1269, 1270
1271, 1272, 1273, 1274, 1275, 1276, 1277, 1278, 1299, 1300, 1301, 1302, 1303, 1304, 1305, 1306
1307, 1308, 1309, 1310, 1331, 1332, 1333, 1334, 1335, 1336, 1337, 1338, 1339, 1340, 1341, 1342
1363, 1364, 1365, 1366, 1367, 1368, 1369, 1370, 1371, 1372, 1373, 1374, 1396, 1397, 1398, 1399
1400, 1401, 1402, 1403, 1404, 1405, 1429, 1430, 1431, 1432, 1433, 1434, 1435, 1436, 1462, 1463
1464, 1465, 1466, 1467, 2069, 2070, 2071, 2072, 2073, 2074, 2075, 2076, 2100, 2101, 2102, 2103
2104, 2105, 2106, 2107, 2108, 2109, 2131, 2132, 2133, 2134, 2135, 2136, 2137, 2138, 2139, 2140
2141, 2142, 2163, 2164, 2165, 2166, 2167, 2168, 2169, 2170, 2171, 2172, 2173, 2174, 2195, 2196
2197, 2198, 2199, 2200, 2201, 2202, 2203, 2204, 2205, 2206, 2227, 2228, 2229, 2230, 2231, 2232
2233, 2234, 2235, 2236, 2237, 2238, 2259, 2260, 2261, 2262, 2263, 2264, 2265, 2266, 2267, 2268
2269, 2270, 2291, 2292, 2293, 2294, 2295, 2296, 2297, 2298, 2299, 2300, 2301, 2302, 2323, 2324
2325, 2326, 2327, 2328, 2329, 2330, 2331, 2332, 2333, 2334, 2355, 2356, 2357, 2358, 2359, 2360
2361, 2362, 2363, 2364, 2365, 2366, 2387, 2388, 2389, 2390, 2391, 2392, 2393, 2394, 2395, 2396
2397, 2398, 2419, 2420, 2421, 2422, 2423, 2424, 2425, 2426, 2427, 2428, 2429, 2430, 2451, 2452
2453, 2454, 2455, 2456, 2457, 2458, 2459, 2460, 2461, 2462, 2483, 2484, 2485, 2486, 2487, 2488
2489, 2490, 2491, 2492, 2493, 2494, 2516, 2517, 2518, 2519, 2520, 2521, 2522, 2523, 2524, 2525
2549, 2550, 2551, 2552, 2553, 2554, 2555, 2556, 2582, 2583, 2584, 2585, 2586, 2587, 3062, 3063
** ... 50 like lines cut
*****************
*** NODE SETS ***
*****************
** AllNodes - Node set containing all elements
*NSet, NSet=AllNodes, Generate
1, 9801, 1
*****************
*** MATERIALS ***
*****************
*Material, Name=Mat0
*Elastic
3e+09, 0.2
*Expansion
6.5e-06
*Material, Name=Mat1
*Elastic, type=ENGINEERING CONSTANTS
2e+11, 1e+10, 1e+10, 0.3, 0.4, 0.4, 5e+09, 5e+09
5e+09
*Expansion, type=ORTHO
-2e-07, 3e-06, 3e-06
*Solid Section, ElSet=Matrix, Material=Mat0
1.0,
*Solid Section, ElSet=Yarn0, Material=Mat1, Orientation=TexGenOrientations
1.0,
*Solid Section, ElSet=Yarn1, Material=Mat1, Orientation=TexGenOrientations
1.0,
*Solid Section, ElSet=Yarn2, Material=Mat1, Orientation=TexGenOrientations
1.0,
*Solid Section, ElSet=Yarn3, Material=Mat1, Orientation=TexGenOrientations
1.0,
************************************
*** PERIODIC BOUNDARY CONDITIONS ***
************************************
*** ConstraintsDriver0 = e_x
*** ConstraintsDriver1 = e_y
*** ConstraintsDriver2 = e_z
*** ConstraintsDriver3 = e_xy
*** ConstraintsDriver4 = e_xz
*** ConstraintsDriver5 = e_yz
*Node
9802, 0, 0, 0
*NSet, NSet=ConstraintsDriver0
9802
*Node
9803, 0, 0, 0
*NSet, NSet=ConstraintsDriver1
9803
*Node
9804, 0, 0, 0
*NSet, NSet=ConstraintsDriver2
9804
*Node
9805, 0, 0, 0
*NSet, NSet=ConstraintsDriver3
9805
*Node
9806, 0, 0, 0
*NSet, NSet=ConstraintsDriver4
9806
*Node
9807, 0, 0, 0
*NSet, NSet=ConstraintsDriver5
9807
*NSet, NSet=FaceA, Unsorted
1155, 1188, 1221, 1254, 1287, 1320, 1353, 1386, 1419, 1452, 1485, 1518, 1551, 1584, 1617, 1650
1683, 1716, 1749, 1782, 1815, 1848, 1881, 1914, 1947, 1980, 2013, 2046, 2079, 2112, 2145, 2244
2277, 2310, 2343, 2376, 2409, 2442, 2475, 2508, 2541, 2574, 2607, 2640, 2673, 2706, 2739, 2772
2805, 2838, 2871, 2904, 2937, 2970, 3003, 3036, 3069, 3102, 3135, 3168, 3201, 3234, 3333, 3366
3399, 3432, 3465, 3498, 3531, 3564, 3597, 3630, 3663, 3696, 3729, 3762, 3795, 3828, 3861, 3894
3927, 3960, 3993, 4026, 4059, 4092, 4125, 4158, 4191, 4224, 4257, 4290, 4323, 4422, 4455, 4488
4521, 4554, 4587, 4620, 4653, 4686, 4719, 4752, 4785, 4818, 4851, 4884, 4917, 4950, 4983, 5016
5049, 5082, 5115, 5148, 5181, 5214, 5247, 5280, 5313, 5346, 5379, 5412, 5511, 5544, 5577, 5610
5643, 5676, 5709, 5742, 5775, 5808, 5841, 5874, 5907, 5940, 5973, 6006, 6039, 6072, 6105, 6138
6171, 6204, 6237, 6270, 6303, 6336, 6369, 6402, 6435, 6468, 6501, 6600, 6633, 6666, 6699, 6732
6765, 6798, 6831, 6864, 6897, 6930, 6963, 6996, 7029, 7062, 7095, 7128, 7161, 7194, 7227, 7260
7293, 7326, 7359, 7392, 7425, 7458, 7491, 7524, 7557, 7590, 7689, 7722, 7755, 7788, 7821, 7854
7887, 7920, 7953, 7986, 8019, 8052, 8085, 8118, 8151, 8184, 8217, 8250, 8283, 8316, 8349, 8382
8415, 8448, 8481, 8514, 8547, 8580, 8613, 8646, 8679
*NSet, NSet=FaceB, Unsorted
1123, 1156, 1189, 1222, 1255, 1288, 1321, 1354, 1387, 1420, 1453, 1486, 1519, 1552, 1585, 1618
1651, 1684, 1717, 1750, 1783, 1816, 1849, 1882, 1915, 1948, 1981, 2014, 2047, 2080, 2113, 2212
2245, 2278, 2311, 2344, 2377, 2410, 2443, 2476, 2509, 2542, 2575, 2608, 2641, 2674, 2707, 2740
2773, 2806, 2839, 2872, 2905, 2938, 2971, 3004, 3037, 3070, 3103, 3136, 3169, 3202, 3301, 3334
3367, 3400, 3433, 3466, 3499, 3532, 3565, 3598, 3631, 3664, 3697, 3730, 3763, 3796, 3829, 3862
3895, 3928, 3961, 3994, 4027, 4060, 4093, 4126, 4159, 4192, 4225, 4258, 4291, 4390, 4423, 4456
4489, 4522, 4555, 4588, 4621, 4654, 4687, 4720, 4753, 4786, 4819, 4852, 4885, 4918, 4951, 4984
5017, 5050, 5083, 5116, 5149, 5182, 5215, 5248, 5281, 5314, 5347, 5380, 5479, 5512, 5545, 5578
5611, 5644, 5677, 5710, 5743, 5776, 5809, 5842, 5875, 5908, 5941, 5974, 6007, 6040, 6073, 6106
6139, 6172, 6205, 6238, 6271, 6304, 6337, 6370, 6403, 6436, 6469, 6568, 6601, 6634, 6667, 6700
6733, 6766, 6799, 6832, 6865, 6898, 6931, 6964, 6997, 7030, 7063, 7096, 7129, 7162, 7195, 7228
7261, 7294, 7327, 7360, 7393, 7426, 7459, 7492, 7525, 7558, 7657, 7690, 7723, 7756, 7789, 7822
7855, 7888, 7921, 7954, 7987, 8020, 8053, 8086, 8119, 8152, 8185, 8218, 8251, 8284, 8317, 8350
8383, 8416, 8449, 8482, 8515, 8548, 8581, 8614, 8647
*NSet, NSet=FaceC, Unsorted
2147, 2148, 2149, 2150, 2151, 2152, 2153, 2154, 2155, 2156, 2157, 2158, 2159, 2160, 2161, 2162
2163, 2164, 2165, 2166, 2167, 2168, 2169, 2170, 2171, 2172, 2173, 2174, 2175, 2176, 2177, 3236
3237, 3238, 3239, 3240, 3241, 3242, 3243, 3244, 3245, 3246, 3247, 3248, 3249, 3250, 3251, 3252
3253, 3254, 3255, 3256, 3257, 3258, 3259, 3260, 3261, 3262, 3263, 3264, 3265, 3266, 4325, 4326
4327, 4328, 4329, 4330, 4331, 4332, 4333, 4334, 4335, 4336, 4337, 4338, 4339, 4340, 4341, 4342
4343, 4344, 4345, 4346, 4347, 4348, 4349, 4350, 4351, 4352, 4353, 4354, 4355, 5414, 5415, 5416
5417, 5418, 5419, 5420, 5421, 5422, 5423, 5424, 5425, 5426, 5427, 5428, 5429, 5430, 5431, 5432
5433, 5434, 5435, 5436, 5437, 5438, 5439, 5440, 5441, 5442, 5443, 5444, 6503, 6504, 6505, 6506
6507, 6508, 6509, 6510, 6511, 6512, 6513, 6514, 6515, 6516, 6517, 6518, 6519, 6520, 6521, 6522
6523, 6524, 6525, 6526, 6527, 6528, 6529, 6530, 6531, 6532, 6533, 7592, 7593, 7594, 7595, 7596
7597, 7598, 7599, 7600, 7601, 7602, 7603, 7604, 7605, 7606, 7607, 7608, 7609, 7610, 7611, 7612
7613, 7614, 7615, 7616, 7617, 7618, 7619, 7620, 7621, 7622, 8681, 8682, 8683, 8684, 8685, 8686
8687, 8688, 8689, 8690, 8691, 8692, 8693, 8694, 8695, 8696, 8697, 8698, 8699, 8700, 8701, 8702
8703, 8704, 8705, 8706, 8707, 8708, 8709, 8710, 8711
*NSet, NSet=FaceD, Unsorted
1091, 1092, 1093, 1094, 1095, 1096, 1097, 1098, 1099, 1100, 1101, 1102, 1103, 1104, 1105, 1106
1107, 1108, 1109, 1110, 1111, 1112, 1113, 1114, 1115, 1116, 1117, 1118, 1119, 1120, 1121, 2180
2181, 2182, 2183, 2184, 2185, 2186, 2187, 2188, 2189, 2190, 2191, 2192, 2193, 2194, 2195, 2196
2197, 2198, 2199, 2200, 2201, 2202, 2203, 2204, 2205, 2206, 2207, 2208, 2209, 2210, 3269, 3270
3271, 3272, 3273, 3274, 3275, 3276, 3277, 3278, 3279, 3280, 3281, 3282, 3283, 3284, 3285, 3286
3287, 3288, 3289, 3290, 3291, 3292, 3293, 3294, 3295, 3296, 3297, 3298, 3299, 4358, 4359, 4360
4361, 4362, 4363, 4364, 4365, 4366, 4367, 4368, 4369, 4370, 4371, 4372, 4373, 4374, 4375, 4376
4377, 4378, 4379, 4380, 4381, 4382, 4383, 4384, 4385, 4386, 4387, 4388, 5447, 5448, 5449, 5450
5451, 5452, 5453, 5454, 5455, 5456, 5457, 5458, 5459, 5460, 5461, 5462, 5463, 5464, 5465, 5466
5467, 5468, 5469, 5470, 5471, 5472, 5473, 5474, 5475, 5476, 5477, 6536, 6537, 6538, 6539, 6540
6541, 6542, 6543, 6544, 6545, 6546, 6547, 6548, 6549, 6550, 6551, 6552, 6553, 6554, 6555, 6556
6557, 6558, 6559, 6560, 6561, 6562, 6563, 6564, 6565, 6566, 7625, 7626, 7627, 7628, 7629, 7630
7631, 7632, 7633, 7634, 7635, 7636, 7637, 7638, 7639, 7640, 7641, 7642, 7643, 7644, 7645, 7646
7647, 7648, 7649, 7650, 7651, 7652, 7653, 7654, 7655
*NSet, NSet=FaceE, Unsorted
8747, 8748, 8749, 8750, 8751, 8752, 8753, 8754, 8755, 8756, 8757, 8758, 8759, 8760, 8761, 8762
8763, 8764, 8765, 8766, 8767, 8768, 8769, 8770, 8771, 8772, 8773, 8774, 8775, 8776, 8777, 8780
8781, 8782, 8783, 8784, 8785, 8786, 8787, 8788, 8789, 8790, 8791, 8792, 8793, 8794, 8795, 8796
8797, 8798, 8799, 8800, 8801, 8802, 8803, 8804, 8805, 8806, 8807, 8808, 8809, 8810, 8813, 8814
8815, 8816, 8817, 8818, 8819, 8820, 8821, 8822, 8823, 8824, 8825, 8826, 8827, 8828, 8829, 8830
8831, 8832, 8833, 8834, 8835, 8836, 8837, 8838, 8839, 8840, 8841, 8842, 8843, 8846, 8847, 8848
8849, 8850, 8851, 8852, 8853, 8854, 8855, 8856, 8857, 8858, 8859, 8860, 8861, 8862, 8863, 8864
8865, 8866, 8867, 8868, 8869, 8870, 8871, 8872, 8873, 8874, 8875, 8876, 8879, 8880, 8881, 8882
8883, 8884, 8885, 8886, 8887, 8888, 8889, 8890, 8891, 8892, 8893, 8894, 8895, 8896, 8897, 8898
8899, 8900, 8901, 8902, 8903, 8904, 8905, 8906, 8907, 8908, 8909, 8912, 8913, 8914, 8915, 8916
8917, 8918, 8919, 8920, 8921, 8922, 8923, 8924, 8925, 8926, 8927, 8928, 8929, 8930, 8931, 8932
8933, 8934, 8935, 8936, 8937, 8938, 8939, 8940, 8941, 8942, 8945, 8946, 8947, 8948, 8949, 8950
8951, 8952, 8953, 8954, 8955, 8956, 8957, 8958, 8959, 8960, 8961, 8962, 8963, 8964, 8965, 8966
8967, 8968, 8969, 8970, 8971, 8972, 8973, 8974, 8975, 8978, 8979, 8980, 8981, 8982, 8983, 8984
8985, 8986, 8987, 8988, 8989, 8990, 8991, 8992, 8993, 8994, 8995, 8996, 8997, 8998, 8999, 9000
9001, 9002, 9003, 9004, 9005, 9006, 9007, 9008, 9011, 9012, 9013, 9014, 9015, 9016, 9017, 9018
9019, 9020, 9021, 9022, 9023, 9024, 9025, 9026, 9027, 9028, 9029, 9030, 9031, 9032, 9033, 9034
9035, 9036, 9037, 9038, 9039, 9040, 9041, 9044, 9045, 9046, 9047, 9048, 9049, 9050, 9051, 9052
9053, 9054, 9055, 9056, 9057, 9058, 9059, 9060, 9061, 9062, 9063, 9064, 9065, 9066, 9067, 9068
9069, 9070, 9071, 9072, 9073, 9074, 9077, 9078, 9079, 9080, 9081, 9082, 9083, 9084, 9085, 9086
** ... 41 like lines cut
*NSet, NSet=FaceF, Unsorted
35, 36, 37, 38, 39, 40, 41, 42, 43, 44, 45, 46, 47, 48, 49, 50
51, 52, 53, 54, 55, 56, 57, 58, 59, 60, 61, 62, 63, 64, 65, 68
69, 70, 71, 72, 73, 74, 75, 76, 77, 78, 79, 80, 81, 82, 83, 84
85, 86, 87, 88, 89, 90, 91, 92, 93, 94, 95, 96, 97, 98, 101, 102
103, 104, 105, 106, 107, 108, 109, 110, 111, 112, 113, 114, 115, 116, 117, 118
119, 120, 121, 122, 123, 124, 125, 126, 127, 128, 129, 130, 131, 134, 135, 136
137, 138, 139, 140, 141, 142, 143, 144, 145, 146, 147, 148, 149, 150, 151, 152
153, 154, 155, 156, 157, 158, 159, 160, 161, 162, 163, 164, 167, 168, 169, 170
171, 172, 173, 174, 175, 176, 177, 178, 179, 180, 181, 182, 183, 184, 185, 186
187, 188, 189, 190, 191, 192, 193, 194, 195, 196, 197, 200, 201, 202, 203, 204
205, 206, 207, 208, 209, 210, 211, 212, 213, 214, 215, 216, 217, 218, 219, 220
221, 222, 223, 224, 225, 226, 227, 228, 229, 230, 233, 234, 235, 236, 237, 238
239, 240, 241, 242, 243, 244, 245, 246, 247, 248, 249, 250, 251, 252, 253, 254
255, 256, 257, 258, 259, 260, 261, 262, 263, 266, 267, 268, 269, 270, 271, 272
273, 274, 275, 276, 277, 278, 279, 280, 281, 282, 283, 284, 285, 286, 287, 288
289, 290, 291, 292, 293, 294, 295, 296, 299, 300, 301, 302, 303, 304, 305, 306
307, 308, 309, 310, 311, 312, 313, 314, 315, 316, 317, 318, 319, 320, 321, 322
323, 324, 325, 326, 327, 328, 329, 332, 333, 334, 335, 336, 337, 338, 339, 340
341, 342, 343, 344, 345, 346, 347, 348, 349, 350, 351, 352, 353, 354, 355, 356
357, 358, 359, 360, 361, 362, 365, 366, 367, 368, 369, 370, 371, 372, 373, 374
** ... 41 like lines cut
*NSet, NSet=Edge1, Unsorted
1090, 2179, 3268, 4357, 5446, 6535, 7624
*NSet, NSet=Edge2, Unsorted
1122, 2211, 3300, 4389, 5478, 6567, 7656
*NSet, NSet=Edge3, Unsorted
2178, 3267, 4356, 5445, 6534, 7623, 8712
*NSet, NSet=Edge4, Unsorted
2146, 3235, 4324, 5413, 6502, 7591, 8680
*NSet, NSet=Edge5, Unsorted
34, 67, 100, 133, 166, 199, 232, 265, 298, 331, 364, 397, 430, 463, 496, 529
562, 595, 628, 661, 694, 727, 760, 793, 826, 859, 892, 925, 958, 991, 1024
*NSet, NSet=Edge6, Unsorted
66, 99, 132, 165, 198, 231, 264, 297, 330, 363, 396, 429, 462, 495, 528, 561
594, 627, 660, 693, 726, 759, 792, 825, 858, 891, 924, 957, 990, 1023, 1056
*NSet, NSet=Edge7, Unsorted
8778, 8811, 8844, 8877, 8910, 8943, 8976, 9009, 9042, 9075, 9108, 9141, 9174, 9207, 9240, 9273
9306, 9339, 9372, 9405, 9438, 9471, 9504, 9537, 9570, 9603, 9636, 9669, 9702, 9735, 9768
*NSet, NSet=Edge8, Unsorted
8746, 8779, 8812, 8845, 8878, 8911, 8944, 8977, 9010, 9043, 9076, 9109, 9142, 9175, 9208, 9241
9274, 9307, 9340, 9373, 9406, 9439, 9472, 9505, 9538, 9571, 9604, 9637, 9670, 9703, 9736
*NSet, NSet=Edge9, Unsorted
2, 3, 4, 5, 6, 7, 8, 9, 10, 11, 12, 13, 14, 15, 16, 17
18, 19, 20, 21, 22, 23, 24, 25, 26, 27, 28, 29, 30, 31, 32
*NSet, NSet=Edge10, Unsorted
1058, 1059, 1060, 1061, 1062, 1063, 1064, 1065, 1066, 1067, 1068, 1069, 1070, 1071, 1072, 1073
1074, 1075, 1076, 1077, 1078, 1079, 1080, 1081, 1082, 1083, 1084, 1085, 1086, 1087, 1088
*NSet, NSet=Edge11, Unsorted
9770, 9771, 9772, 9773, 9774, 9775, 9776, 9777, 9778, 9779, 9780, 9781, 9782, 9783, 9784, 9785
9786, 9787, 9788, 9789, 9790, 9791, 9792, 9793, 9794, 9795, 9796, 9797, 9798, 9799, 9800
*NSet, NSet=Edge12, Unsorted
8714, 8715, 8716, 8717, 8718, 8719, 8720, 8721, 8722, 8723, 8724, 8725, 8726, 8727, 8728, 8729
8730, 8731, 8732, 8733, 8734, 8735, 8736, 8737, 8738, 8739, 8740, 8741, 8742, 8743, 8744
*NSet, NSet=MasterNode1, Unsorted
1
*NSet, NSet=MasterNode2, Unsorted
33
*NSet, NSet=MasterNode3, Unsorted
1089
*NSet, NSet=MasterNode4, Unsorted
1057
*NSet, NSet=MasterNode5, Unsorted
8713
*NSet, NSet=MasterNode6, Unsorted
8745
*NSet, NSet=MasterNode7, Unsorted
9801
*NSet, NSet=MasterNode8, Unsorted
9769
***************************
*** BOUNDARY CONDITIONS ***
***************************
*** Name: Translation stop Vertex 1 Type: Displacement/Rotation
*Boundary
MasterNode1, 1, 1
MasterNode1, 2, 2
MasterNode1, 3, 3

*****************
*** EQUATIONS ***
*****************
*Equation
3
FaceA, 1, 1.0, FaceB, 1, -1.0, ConstraintsDriver0, 1, -2
*Equation
2
FaceA, 2, 1.0, FaceB, 2, -1.0
*Equation
2
FaceA, 3, 1.0, FaceB, 3, -1.0
*Equation
3
FaceC, 1, 1.0, FaceD, 1, -1.0, ConstraintsDriver3, 1, -2
*Equation
3
FaceC, 2, 1.0, FaceD, 2, -1.0, ConstraintsDriver1, 1, -2
*Equation
2
FaceC, 3, 1.0, FaceD, 3, -1.0
*Equation
3
FaceE, 1, 1.0, FaceF, 1, -1.0, ConstraintsDriver4, 1, -0.22
*Equation
3
FaceE, 2, 1.0, FaceF, 2, -1.0, ConstraintsDriver5, 1, -0.22
*Equation
3
FaceE, 3, 1.0, FaceF, 3, -1.0, ConstraintsDriver2, 1, -0.22
*Equation
3
Edge2, 1, 1.0, Edge1, 1, -1.0, ConstraintsDriver0, 1, -2
*Equation
2
Edge2, 2, 1.0, Edge1, 2, -1.0
*Equation
2
Edge2, 3, 1.0, Edge1, 3, -1.0
*Equation
4
Edge3, 1, 1.0, Edge1, 1, -1.0, ConstraintsDriver0, 1, -2, ConstraintsDriver3, 1, -2
*Equation
3
Edge3, 2, 1.0, Edge1, 2, -1.0, ConstraintsDriver1, 1, -2
*Equation
2
Edge3, 3, 1.0, Edge1, 3, -1.0
*Equation
3
Edge4, 1, 1.0, Edge1, 1, -1.0, ConstraintsDriver3, 1, -2
*Equation
3
Edge4, 2, 1.0, Edge1, 2, -1.0, ConstraintsDriver1, 1, -2
*Equation
2
Edge4, 3, 1.0, Edge1, 3, -1.0
*Equation
3
Edge6, 1, 1.0, Edge5, 1, -1.0, ConstraintsDriver0, 1, -2
*Equation
2
Edge6, 2, 1.0, Edge5, 2, -1.0
*Equation
2
Edge6, 3, 1.0, Edge5, 3, -1.0
*Equation
4
Edge7, 1, 1.0, Edge5, 1, -1.0, ConstraintsDriver4, 1, -0.22, ConstraintsDriver0, 1, -2
*Equation
3
Edge7, 2, 1.0, Edge5, 2, -1.0, ConstraintsDriver5, 1, -0.22
*Equation
3
Edge7, 3, 1.0, Edge5, 3, -1.0, ConstraintsDriver2, 1, -0.22
*Equation
3
Edge8, 1, 1.0, Edge5, 1, -1.0, ConstraintsDriver4, 1, -0.22
*Equation
3
Edge8, 2, 1.0, Edge5, 2, -1.0, ConstraintsDriver5, 1, -0.22
*Equation
3
Edge8, 3, 1.0, Edge5, 3, -1.0, ConstraintsDriver2, 1, -0.22
*Equation
3
Edge10, 1, 1.0, Edge9, 1, -1.0, ConstraintsDriver3, 1, -2
*Equation
3
Edge10, 2, 1.0, Edge9, 2, -1.0, ConstraintsDriver1, 1, -2
*Equation
2
Edge10, 3, 1.0, Edge9, 3, -1.0
*Equation
4
Edge11, 1, 1.0, Edge9, 1, -1.0, ConstraintsDriver3, 1, -2, ConstraintsDriver4, 1, -0.22
*Equation
4
Edge11, 2, 1.0, Edge9, 2, -1.0, ConstraintsDriver1, 1, -2, ConstraintsDriver5, 1, -0.22
*Equation
3
Edge11, 3, 1.0, Edge9, 3, -1.0, ConstraintsDriver2, 1, -0.22
*Equation
3
Edge12, 1, 1.0, Edge9, 1, -1.0, ConstraintsDriver4, 1, -0.22
*Equation
3
Edge12, 2, 1.0, Edge9, 2, -1.0, ConstraintsDriver5, 1, -0.22
*Equation
3
Edge12, 3, 1.0, Edge9, 3, -1.0, ConstraintsDriver2, 1, -0.22
*Equation
3
MasterNode2, 1, 1.0, MasterNode1, 1, -1.0, ConstraintsDriver0, 1, -2
*Equation
2
MasterNode2, 2, 1.0, MasterNode1, 2, -1.0
*Equation
2
MasterNode2, 3, 1.0, MasterNode1, 3, -1.0
*Equation
4
MasterNode3, 1, 1.0, MasterNode1, 1, -1.0, ConstraintsDriver0, 1, -2, ConstraintsDriver3, 1, -2
*Equation
3
MasterNode3, 2, 1.0, MasterNode1, 2, -1.0, ConstraintsDriver1, 1, -2
*Equation
2
MasterNode3, 3, 1.0, MasterNode1, 3, -1.0
*Equation
3
MasterNode4, 1, 1.0, MasterNode1, 1, -1.0, ConstraintsDriver3, 1, -2
*Equation
3
MasterNode4, 2, 1.0, MasterNode1, 2, -1.0, ConstraintsDriver1, 1, -2
*Equation
2
MasterNode4, 3, 1.0, MasterNode1, 3, -1.0
*Equation
3
MasterNode5, 1, 1.0, MasterNode1, 1, -1.0, ConstraintsDriver4, 1, -0.22
*Equation
3
MasterNode5, 2, 1.0, MasterNode1, 2, -1.0, ConstraintsDriver5, 1, -0.22
*Equation
3
MasterNode5, 3, 1.0, MasterNode1, 3, -1.0, ConstraintsDriver2, 1, -0.22
*Equation
4
MasterNode6, 1, 1.0, MasterNode1, 1, -1.0, ConstraintsDriver4, 1, -0.22, ConstraintsDriver0, 1, -2
*Equation
3
MasterNode6, 2, 1.0, MasterNode1, 2, -1.0, ConstraintsDriver5, 1, -0.22
*Equation
3
MasterNode6, 3, 1.0, MasterNode1, 3, -1.0, ConstraintsDriver2, 1, -0.22
*Equation
5
MasterNode7, 1, 1.0, MasterNode1, 1, -1.0, ConstraintsDriver0, 1, -2, ConstraintsDriver4, 1, -0.22,
ConstraintsDriver3, 1, -2
*Equation
4
MasterNode7, 2, 1.0, MasterNode1, 2, -1.0, ConstraintsDriver1, 1, -2, ConstraintsDriver5, 1, -0.22
*Equation
3
MasterNode7, 3, 1.0, MasterNode1, 3, -1.0, ConstraintsDriver2, 1, -0.22
*Equation
4
MasterNode8, 1, 1.0, MasterNode1, 1, -1.0, ConstraintsDriver3, 1, -2, ConstraintsDriver4, 1, -0.22
*Equation
4
MasterNode8, 2, 1.0, MasterNode1, 2, -1.0, ConstraintsDriver1, 1, -2, ConstraintsDriver5, 1, -0.22
*Equation
3
MasterNode8, 3, 1.0, MasterNode1, 3, -1.0, ConstraintsDriver2, 1, -0.22
*******************
*** CREATE STEP ***
*******************
*** PREDEFINED FIELDS ***
*** Name: Initial temperature 0ºC all cells   Type: Temperature ***
*Initial Conditions, type=TEMPERATURE
AllNodes, 0.

*Step, Name=Isothermal linear perturbation step, perturbation
Elastic material property computation
*Static

***********************
*** OUTPUT REQUESTS ***
***********************
*Output, field
*Element Output, directions=YES
S,
*** FIELD OUTPUT: Output Request Fx ***
*Node Output, nset=ConstraintsDriver0
U,
*** FIELD OUTPUT: Output Request Fy ***
*Node Output, nset=ConstraintsDriver1
U,
*** FIELD OUTPUT: Ouput Request Fz ***
*Node Output, nset=ConstraintsDriver2
U,
*** FIELD OUTPUT: Output Request Shear_xy ***
*Node Output, nset=ConstraintsDriver3
U,
*** FIELD OUTPUT: Output Request Shear_zx ***
*Node Output, nset=ConstraintsDriver4
U,
*** FIELD OUTPUT: Output Request Shear_yz ***
*Node Output, nset=ConstraintsDriver5
U,

******************
*** LOAD CASES ***
******************
*Load Case, name=Load0
*Boundary, op=NEW
MasterNode1, 1, 1
MasterNode1, 2, 2
MasterNode1, 3, 3
*Cload
ConstraintsDriver0, 1, 0.88
*End Load Case

*Load Case, name=Load1
*Boundary, op=NEW
MasterNode1, 1, 1
MasterNode1, 2, 2
MasterNode1, 3, 3
*Cload
ConstraintsDriver1, 1, 0.88
*End Load Case

*Load Case, name=Load2
*Boundary, op=NEW
MasterNode1, 1, 1
MasterNode1, 2, 2
MasterNode1, 3, 3
*Cload
ConstraintsDriver2, 1, 0.88
*End Load Case

*Load Case, name=Load3
*Boundary, op=NEW
MasterNode1, 1, 1
MasterNode1, 2, 2
MasterNode1, 3, 3
*Cload
ConstraintsDriver3, 1, 0.88
*End Load Case

*Load Case, name=Load4
*Boundary, op=NEW
MasterNode1, 1, 1
MasterNode1, 2, 2
MasterNode1, 3, 3
*Cload
ConstraintsDriver4, 1, 0.88
*End Load Case

*Load Case, name=Load5
*Boundary, op=NEW
MasterNode1, 1, 1
MasterNode1, 2, 2
MasterNode1, 3, 3
*Cload
ConstraintsDriver5, 1, 0.88
*End Load Case


*End Step

*** STEP: Thermomechanical step ***
*Step, name=Thermomechanical step, perturbation
Coefficient of Thermal Expansion computation
*Static
*** PREDEFINED FIELDS ***
*** Name: Temperature steady 1ºC all cells   Type: Temperature ***
*Temperature
AllNodes, 1.
***********************
*** OUTPUT REQUESTS ***
***********************
*Output, field
*Element Output, directions=YES
S,
*** FIELD OUTPUT: Output Request Fx ***
*Node Output, nset=ConstraintsDriver0
U,
*** FIELD OUTPUT: Output Request Fy ***
*Node Output, nset=ConstraintsDriver1
U,
*** FIELD OUTPUT: Output Request Fz ***
*Node Output, nset=ConstraintsDriver2
U,
*End Step
